
 Created by Python create_sdf_string function

 26  0  0  0  0  0  0  0  0  0999 V2000
    9.7862    7.0660   22.3672 C   0  0  0  0  0  0  0  0  0  0  0  0
    8.6453    6.9843   22.5312 C   0  0  0  0  0  0  0  0  0  0  0  0
    7.7215    8.4800   23.2056 C   0  0  0  0  0  0  0  0  0  0  0  0
    9.5468    7.4424   17.4969 C   0  0  0  0  0  0  0  0  0  0  0  0
    8.4479    8.7513   18.3539 C   0  0  0  0  0  0  0  0  0  0  0  0
    9.7587    6.8244   19.6619 C   0  0  0  0  0  0  0  0  0  0  0  0
    7.3063    9.1685   20.9771 C   0  0  0  0  0  0  0  0  0  0  0  0
    8.3650    8.1815   18.6650 C   0  0  0  0  0  0  0  0  0  0  0  0
    9.5974    8.2487   22.2474 C   0  0  0  0  0  0  0  0  0  0  0  0
    9.4047    6.4978   21.5295 C   0  0  0  0  0  0  0  0  0  0  0  0
    9.7020    5.3377   22.1953 C   0  0  0  0  0  0  0  0  0  0  0  0
    8.0578    8.7574   21.7964 C   0  0  0  0  0  0  0  0  0  0  0  0
   10.4819    7.8917   18.7668 C   0  0  0  0  0  0  0  0  0  0  0  0
    8.9581    8.2637   21.5506 C   0  0  0  0  0  0  0  0  0  0  0  0
    8.2797    7.7336   19.9814 C   0  0  0  0  0  0  0  0  0  0  0  0
   11.5822    6.4226   21.2169 C   0  0  0  0  0  0  0  0  0  0  0  0
    9.5941    9.9251   22.2375 C   0  0  0  0  0  0  0  0  0  0  0  0
    9.4714    9.7662   18.9921 C   0  0  0  0  0  0  0  0  0  0  0  0
    9.9065    5.4976   20.5246 C   0  0  0  0  0  0  0  0  0  0  0  0
   10.1981    8.8034   18.0777 C   0  0  0  0  0  0  0  0  0  0  0  0
    8.9699    7.0279   17.6677 C   0  0  0  0  0  0  0  0  0  0  0  0
   11.4602    6.4169   21.7254 C   0  0  0  0  0  0  0  0  0  0  0  0
    8.4605    8.2620   23.1157 C   0  0  0  0  0  0  0  0  0  0  0  0
   10.1965    7.6997   22.7817 C   0  0  0  0  0  0  0  0  0  0  0  0
   12.0446    8.3889   20.6559 C   0  0  0  0  0  0  0  0  0  0  0  0
   11.6696    7.0505   20.2807 C   0  0  0  0  0  0  0  0  0  0  0  0
M  END
$$$$

 Created by Python create_sdf_string function

 26  1  0  0  0  0  0  0  0  0999 V2000
   10.6460    6.2566   21.1178 C   0  0  0  0  0  0  0  0  0  0  0  0
    8.1220    6.0561   22.4444 C   0  0  0  0  0  0  0  0  0  0  0  0
    7.3912    7.9268   22.4553 C   0  0  0  0  0  0  0  0  0  0  0  0
    8.2967    7.4810   18.8014 C   0  0  0  0  0  0  0  0  0  0  0  0
    8.5950    8.1574   18.1059 C   0  0  0  0  0  0  0  0  0  0  0  0
    9.2276    7.6652   20.1990 C   0  0  0  0  0  0  0  0  0  0  0  0
    8.6072   10.3983   21.1786 C   0  0  0  0  0  0  0  0  0  0  0  0
    9.4859    9.3325   19.0709 C   0  0  0  0  0  0  0  0  0  0  0  0
    9.2653    9.2852   22.6209 C   0  0  0  0  0  0  0  0  0  0  0  0
   10.8518    6.9915   22.8119 C   0  0  0  0  0  0  0  0  0  0  0  0
    9.7201    6.3214   21.3445 C   0  0  0  0  0  0  0  0  0  0  0  0
    9.3244   10.1480   22.3949 C   0  0  0  0  0  0  0  0  0  0  0  0
    9.9136    7.0818   18.9695 C   0  0  0  0  0  0  0  0  0  0  0  0
    8.7858    6.7653   22.7888 C   0  0  0  0  0  0  0  0  0  0  0  0
    9.8236    9.9126   19.3999 C   0  0  0  0  0  0  0  0  0  0  0  0
   11.3421    7.7579   22.2819 C   0  0  0  0  0  0  0  0  0  0  0  0
   10.8233    8.5577   23.6164 C   0  0  0  0  0  0  0  0  0  0  0  0
   10.0198   10.8944   19.7990 C   0  0  0  0  0  0  0  0  0  0  0  0
   10.8670    5.7874   19.3891 C   0  0  0  0  0  0  0  0  0  0  0  0
   10.4824    8.7528   17.2990 C   0  0  0  0  0  0  0  0  0  0  0  0
    9.6541    7.4687   17.8478 C   0  0  0  0  0  0  0  0  0  0  0  0
   11.1755    5.7521   21.9541 C   0  0  0  0  0  0  0  0  0  0  0  0
    9.7111   10.0155   22.8630 C   0  0  0  0  0  0  0  0  0  0  0  0
   10.3841    6.1260   23.6122 C   0  0  0  0  0  0  0  0  0  0  0  0
   11.2495   10.1679   20.3234 C   0  0  0  0  0  0  0  0  0  0  0  0
   11.7819    6.0183   19.8236 C   0  0  0  0  0  0  0  0  0  0  0  0
 12 23  1  0
M  END
$$$$

 Created by Python create_sdf_string function

 26  1  0  0  0  0  0  0  0  0999 V2000
   10.5074    5.0625   20.4540 C   0  0  0  0  0  0  0  0  0  0  0  0
    7.7199    5.4576   22.8157 C   0  0  0  0  0  0  0  0  0  0  0  0
    7.0968    6.6710   22.4015 C   0  0  0  0  0  0  0  0  0  0  0  0
    8.4936    8.7838   17.6802 C   0  0  0  0  0  0  0  0  0  0  0  0
    9.2005    7.1332   18.7606 C   0  0  0  0  0  0  0  0  0  0  0  0
    9.5723    8.1196   17.8625 C   0  0  0  0  0  0  0  0  0  0  0  0
    8.0282   10.6663   22.7878 C   0  0  0  0  0  0  0  0  0  0  0  0
    9.5470    9.7003   18.1046 C   0  0  0  0  0  0  0  0  0  0  0  0
    8.3385    9.9984   22.3641 C   0  0  0  0  0  0  0  0  0  0  0  0
   10.4782    5.5501   21.8196 C   0  0  0  0  0  0  0  0  0  0  0  0
    9.3472    6.4900   21.4647 C   0  0  0  0  0  0  0  0  0  0  0  0
    9.3738    9.6263   22.0694 C   0  0  0  0  0  0  0  0  0  0  0  0
   10.9001    7.3018   19.1613 C   0  0  0  0  0  0  0  0  0  0  0  0
    8.7731    6.7889   22.5304 C   0  0  0  0  0  0  0  0  0  0  0  0
    9.7142    9.7033   19.1782 C   0  0  0  0  0  0  0  0  0  0  0  0
   10.9607    7.6307   21.8704 C   0  0  0  0  0  0  0  0  0  0  0  0
   10.6628    8.4737   22.7719 C   0  0  0  0  0  0  0  0  0  0  0  0
   10.8149   10.7383   19.9305 C   0  0  0  0  0  0  0  0  0  0  0  0
   10.8734    5.5162   18.7946 C   0  0  0  0  0  0  0  0  0  0  0  0
   10.0528    9.1463   16.1518 O   0  0  0  0  0  0  0  0  0  0  0  0
    9.0655    8.3889   18.0878 C   0  0  0  0  0  0  0  0  0  0  0  0
   11.2146    5.1179   21.1704 C   0  0  0  0  0  0  0  0  0  0  0  0
    9.7448    9.5934   22.2665 C   0  0  0  0  0  0  0  0  0  0  0  0
    9.2640    6.3092   22.3929 C   0  0  0  0  0  0  0  0  0  0  0  0
   10.6492    9.4993   18.7026 C   0  0  0  0  0  0  0  0  0  0  0  0
   10.6696    6.8633   19.9826 C   0  0  0  0  0  0  0  0  0  0  0  0
 12 23  1  0
M  END
$$$$

 Created by Python create_sdf_string function

 26  0  0  0  0  0  0  0  0  0999 V2000
   10.5483    5.8588   20.5593 C   0  0  0  0  0  0  0  0  0  0  0  0
    9.7090    4.2549   21.7177 C   0  0  0  0  0  0  0  0  0  0  0  0
    7.5378    8.1481   23.4507 C   0  0  0  0  0  0  0  0  0  0  0  0
    9.9962    7.6137   18.5228 C   0  0  0  0  0  0  0  0  0  0  0  0
    8.9946    6.7724   17.6766 C   0  0  0  0  0  0  0  0  0  0  0  0
   10.0302    7.0322   18.6105 C   0  0  0  0  0  0  0  0  0  0  0  0
    9.2599   10.2611   21.1447 C   0  0  0  0  0  0  0  0  0  0  0  0
    9.7069   10.5770   18.6987 C   0  0  0  0  0  0  0  0  0  0  0  0
    9.5004    9.4391   20.9494 C   0  0  0  0  0  0  0  0  0  0  0  0
   10.8549    5.3204   22.0672 C   0  0  0  0  0  0  0  0  0  0  0  0
    9.7503    7.1763   22.4045 C   0  0  0  0  0  0  0  0  0  0  0  0
    8.4310    9.7924   22.4488 C   0  0  0  0  0  0  0  0  0  0  0  0
   12.0257    9.1661   20.5675 C   0  0  0  0  0  0  0  0  0  0  0  0
    8.1193    7.6085   22.9121 C   0  0  0  0  0  0  0  0  0  0  0  0
    9.6743   10.1733   19.2711 C   0  0  0  0  0  0  0  0  0  0  0  0
   10.2465    7.2184   23.0783 C   0  0  0  0  0  0  0  0  0  0  0  0
   11.1603    7.7945   22.8936 C   0  0  0  0  0  0  0  0  0  0  0  0
   11.1769   10.8550   20.3794 C   0  0  0  0  0  0  0  0  0  0  0  0
   10.4439    5.9696   17.9630 C   0  0  0  0  0  0  0  0  0  0  0  0
    9.6178    9.3871   16.7806 C   0  0  0  0  0  0  0  0  0  0  0  0
    9.3097    6.8669   16.7731 C   0  0  0  0  0  0  0  0  0  0  0  0
   11.0491    4.4029   20.7932 C   0  0  0  0  0  0  0  0  0  0  0  0
    9.4877    8.4572   22.6663 C   0  0  0  0  0  0  0  0  0  0  0  0
    9.7418    6.0454   21.5596 C   0  0  0  0  0  0  0  0  0  0  0  0
   10.3238    8.9126   19.6027 C   0  0  0  0  0  0  0  0  0  0  0  0
   10.5086    7.6309   18.5258 C   0  0  0  0  0  0  0  0  0  0  0  0
M  END
$$$$

 Created by Python create_sdf_string function

 26  2  0  0  0  0  0  0  0  0999 V2000
    9.2636    6.1132   22.8046 C   0  0  0  0  0  0  0  0  0  0  0  0
    8.4765    5.7346   22.0283 C   0  0  0  0  0  0  0  0  0  0  0  0
    8.1678    7.5757   23.4275 C   0  0  0  0  0  0  0  0  0  0  0  0
    9.0466    8.1817   18.4399 C   0  0  0  0  0  0  0  0  0  0  0  0
    8.3983    8.1922   18.6959 C   0  0  0  0  0  0  0  0  0  0  0  0
   10.8056    7.3645   18.2851 C   0  0  0  0  0  0  0  0  0  0  0  0
    9.7185   12.7847   19.8942 O   0  0  0  0  0  0  0  0  0  0  0  0
   10.3425   11.4929   18.3401 C   0  0  0  0  0  0  0  0  0  0  0  0
    9.2141    7.9950   22.2221 C   0  0  0  0  0  0  0  0  0  0  0  0
   10.5769    6.4836   21.5845 C   0  0  0  0  0  0  0  0  0  0  0  0
    9.3890    7.1849   21.8179 C   0  0  0  0  0  0  0  0  0  0  0  0
    9.2401   10.1233   21.9136 C   0  0  0  0  0  0  0  0  0  0  0  0
   10.1130   10.1960   20.8989 C   0  0  0  0  0  0  0  0  0  0  0  0
    7.6618    7.1934   22.9000 C   0  0  0  0  0  0  0  0  0  0  0  0
   10.1415   10.9107   19.2169 C   0  0  0  0  0  0  0  0  0  0  0  0
    8.2532    8.5750   24.2034 C   0  0  0  0  0  0  0  0  0  0  0  0
   11.0006    8.3766   22.0824 C   0  0  0  0  0  0  0  0  0  0  0  0
   10.0368   11.3062   19.9266 C   0  0  0  0  0  0  0  0  0  0  0  0
   10.5189    6.3594   18.5133 C   0  0  0  0  0  0  0  0  0  0  0  0
   10.7711   10.4548   17.4513 C   0  0  0  0  0  0  0  0  0  0  0  0
    9.0568    6.3646   17.6724 C   0  0  0  0  0  0  0  0  0  0  0  0
   10.5034    5.0388   22.3286 C   0  0  0  0  0  0  0  0  0  0  0  0
    9.4796    9.4333   21.9145 C   0  0  0  0  0  0  0  0  0  0  0  0
    9.2920    9.1081   18.8428 C   0  0  0  0  0  0  0  0  0  0  0  0
   10.8082    9.7268   19.5916 C   0  0  0  0  0  0  0  0  0  0  0  0
   11.0981    7.7253   17.8017 C   0  0  0  0  0  0  0  0  0  0  0  0
  6 19  4  0
  6 26  4  0
M  END
$$$$

 Created by Python create_sdf_string function

 26  2  0  0  0  0  0  0  0  0999 V2000
    8.4331    5.5527   23.6363 C   0  0  0  0  0  0  0  0  0  0  0  0
    9.3917    6.4363   23.0503 C   0  0  0  0  0  0  0  0  0  0  0  0
    7.7874    6.9517   24.2686 C   0  0  0  0  0  0  0  0  0  0  0  0
    9.5892    8.1297   18.6306 C   0  0  0  0  0  0  0  0  0  0  0  0
    9.4215   10.1095   19.1004 C   0  0  0  0  0  0  0  0  0  0  0  0
   11.5420    6.8420   19.7327 C   0  0  0  0  0  0  0  0  0  0  0  0
    9.0148   12.7857   18.7904 C   0  0  0  0  0  0  0  0  0  0  0  0
    9.8361   11.6129   19.0304 C   0  0  0  0  0  0  0  0  0  0  0  0
    7.1798    8.1245   24.0756 C   0  0  0  0  0  0  0  0  0  0  0  0
   10.2865    5.5749   22.7092 C   0  0  0  0  0  0  0  0  0  0  0  0
    9.4633    8.7420   22.6589 C   0  0  0  0  0  0  0  0  0  0  0  0
    8.7692   11.9282   20.9247 C   0  0  0  0  0  0  0  0  0  0  0  0
   10.8293    9.7617   20.6637 C   0  0  0  0  0  0  0  0  0  0  0  0
   10.2790    7.0948   22.2635 C   0  0  0  0  0  0  0  0  0  0  0  0
   10.4300   11.0513   19.3859 C   0  0  0  0  0  0  0  0  0  0  0  0
    7.9088    8.6051   24.4457 C   0  0  0  0  0  0  0  0  0  0  0  0
    9.4904    7.5101   23.6864 C   0  0  0  0  0  0  0  0  0  0  0  0
    9.0921   11.2493   20.0350 C   0  0  0  0  0  0  0  0  0  0  0  0
   10.4100    6.8133   18.6797 C   0  0  0  0  0  0  0  0  0  0  0  0
   10.0570   11.4296   18.7471 C   0  0  0  0  0  0  0  0  0  0  0  0
   10.4304    6.4325   17.3880 C   0  0  0  0  0  0  0  0  0  0  0  0
    9.7648    4.8589   22.5824 C   0  0  0  0  0  0  0  0  0  0  0  0
   10.4726    7.8611   20.4232 C   0  0  0  0  0  0  0  0  0  0  0  0
   10.5717    7.6723   18.4946 C   0  0  0  0  0  0  0  0  0  0  0  0
   11.8753    9.2308   20.2770 C   0  0  0  0  0  0  0  0  0  0  0  0
   11.1307    7.6108   17.8053 C   0  0  0  0  0  0  0  0  0  0  0  0
  9 16  1  0
 12 18  1  0
M  END
$$$$

 Created by Python create_sdf_string function

 26  0  0  0  0  0  0  0  0  0999 V2000
    8.4011    6.1815   24.7958 C   0  0  0  0  0  0  0  0  0  0  0  0
   10.1667    5.8418   22.5611 C   0  0  0  0  0  0  0  0  0  0  0  0
    8.6142    7.2630   23.0090 C   0  0  0  0  0  0  0  0  0  0  0  0
   10.4234    6.5754   19.1851 C   0  0  0  0  0  0  0  0  0  0  0  0
   10.1887   11.1876   18.8556 C   0  0  0  0  0  0  0  0  0  0  0  0
   11.0411    5.7737   19.7142 C   0  0  0  0  0  0  0  0  0  0  0  0
    9.0805   11.9813   18.7056 C   0  0  0  0  0  0  0  0  0  0  0  0
   10.4445   10.9629   19.2807 C   0  0  0  0  0  0  0  0  0  0  0  0
    6.9918    7.7149   24.4406 O   0  0  0  0  0  0  0  0  0  0  0  0
    9.6895    6.6939   23.9989 C   0  0  0  0  0  0  0  0  0  0  0  0
   10.0442    8.6850   21.7333 C   0  0  0  0  0  0  0  0  0  0  0  0
    8.3275   11.1112   20.0735 C   0  0  0  0  0  0  0  0  0  0  0  0
   10.3414    8.9139   20.5648 C   0  0  0  0  0  0  0  0  0  0  0  0
   10.3467    6.9602   21.9417 C   0  0  0  0  0  0  0  0  0  0  0  0
   11.6870   11.1829   18.0486 C   0  0  0  0  0  0  0  0  0  0  0  0
    8.0472    8.2799   24.0919 C   0  0  0  0  0  0  0  0  0  0  0  0
    9.7890    6.6516   23.6446 C   0  0  0  0  0  0  0  0  0  0  0  0
    9.3465   10.9669   19.6374 C   0  0  0  0  0  0  0  0  0  0  0  0
   10.5400    6.7522   19.3766 C   0  0  0  0  0  0  0  0  0  0  0  0
    9.3079   10.6578   19.4192 C   0  0  0  0  0  0  0  0  0  0  0  0
    9.7191    8.0264   17.6267 C   0  0  0  0  0  0  0  0  0  0  0  0
    9.7469    6.1208   23.2041 C   0  0  0  0  0  0  0  0  0  0  0  0
   10.8859    7.6591   19.5211 C   0  0  0  0  0  0  0  0  0  0  0  0
    9.5335    8.1341   17.9983 C   0  0  0  0  0  0  0  0  0  0  0  0
   11.9106    8.7793   19.4082 C   0  0  0  0  0  0  0  0  0  0  0  0
   10.7679    8.3859   17.6104 C   0  0  0  0  0  0  0  0  0  0  0  0
M  END
$$$$

 Created by Python create_sdf_string function

 26  0  0  0  0  0  0  0  0  0999 V2000
    8.7072    6.8489   24.8893 C   0  0  0  0  0  0  0  0  0  0  0  0
   10.2583    6.2972   21.3462 C   0  0  0  0  0  0  0  0  0  0  0  0
    9.5372    9.0570   22.8603 C   0  0  0  0  0  0  0  0  0  0  0  0
   11.5182    5.8348   19.3190 C   0  0  0  0  0  0  0  0  0  0  0  0
   10.3285   12.2575   19.8395 C   0  0  0  0  0  0  0  0  0  0  0  0
   11.8934    6.9694   18.2645 C   0  0  0  0  0  0  0  0  0  0  0  0
   10.2494   11.1474   18.6504 C   0  0  0  0  0  0  0  0  0  0  0  0
   11.3854   11.3450   20.3006 C   0  0  0  0  0  0  0  0  0  0  0  0
    8.0918    8.7896   24.4118 C   0  0  0  0  0  0  0  0  0  0  0  0
    8.9515    8.3536   23.9155 C   0  0  0  0  0  0  0  0  0  0  0  0
   11.4423    7.7530   20.5864 C   0  0  0  0  0  0  0  0  0  0  0  0
    9.1867   10.8024   21.1868 C   0  0  0  0  0  0  0  0  0  0  0  0
    9.2600    8.4645   22.3442 C   0  0  0  0  0  0  0  0  0  0  0  0
   11.0356    5.6742   22.1328 C   0  0  0  0  0  0  0  0  0  0  0  0
   10.9577   11.8824   19.0240 C   0  0  0  0  0  0  0  0  0  0  0  0
    8.3437    7.4016   24.1674 C   0  0  0  0  0  0  0  0  0  0  0  0
    8.8832    6.9945   23.4632 C   0  0  0  0  0  0  0  0  0  0  0  0
   10.1788   10.4470   20.0324 C   0  0  0  0  0  0  0  0  0  0  0  0
   10.5359    8.7141   19.9714 C   0  0  0  0  0  0  0  0  0  0  0  0
   10.0090    9.3148   20.3494 C   0  0  0  0  0  0  0  0  0  0  0  0
    9.5531    8.5828   18.0129 C   0  0  0  0  0  0  0  0  0  0  0  0
   10.1923    6.3244   23.0811 C   0  0  0  0  0  0  0  0  0  0  0  0
   11.3129    6.6797   21.3085 C   0  0  0  0  0  0  0  0  0  0  0  0
    9.8239    8.3348   17.4927 C   0  0  0  0  0  0  0  0  0  0  0  0
   11.2301    7.8763   18.1666 C   0  0  0  0  0  0  0  0  0  0  0  0
   10.2999    8.3770   16.6597 C   0  0  0  0  0  0  0  0  0  0  0  0
M  END
$$$$

 Created by Python create_sdf_string function

 26  2  0  0  0  0  0  0  0  0999 V2000
    9.3586    7.1803   23.6840 C   0  0  0  0  0  0  0  0  0  0  0  0
   10.5573    7.0525   20.5244 C   0  0  0  0  0  0  0  0  0  0  0  0
    9.3396    9.0983   21.7817 C   0  0  0  0  0  0  0  0  0  0  0  0
   10.9795    6.8672   18.2257 C   0  0  0  0  0  0  0  0  0  0  0  0
   10.8135   11.2777   19.1638 C   0  0  0  0  0  0  0  0  0  0  0  0
   11.5767    6.1733   20.7530 C   0  0  0  0  0  0  0  0  0  0  0  0
    8.9436    9.6855   18.1001 C   0  0  0  0  0  0  0  0  0  0  0  0
    9.9436   11.2724   19.1734 C   0  0  0  0  0  0  0  0  0  0  0  0
    9.2358    8.4142   23.9370 C   0  0  0  0  0  0  0  0  0  0  0  0
    9.4036    8.7193   24.5765 C   0  0  0  0  0  0  0  0  0  0  0  0
   10.6270    6.2662   19.7484 C   0  0  0  0  0  0  0  0  0  0  0  0
    7.7308   10.8447   20.0025 O   0  0  0  0  0  0  0  0  0  0  0  0
    8.4107    7.1784   23.5345 C   0  0  0  0  0  0  0  0  0  0  0  0
   11.3404    5.3268   22.8505 C   0  0  0  0  0  0  0  0  0  0  0  0
   11.7810   10.8418   19.4550 C   0  0  0  0  0  0  0  0  0  0  0  0
    8.9585    8.5408   23.2888 C   0  0  0  0  0  0  0  0  0  0  0  0
    9.2876    6.4507   23.9367 C   0  0  0  0  0  0  0  0  0  0  0  0
    9.4839   10.2712   20.3022 C   0  0  0  0  0  0  0  0  0  0  0  0
   10.8401    8.9542   19.7574 C   0  0  0  0  0  0  0  0  0  0  0  0
    9.3401    9.1708   19.5749 C   0  0  0  0  0  0  0  0  0  0  0  0
    9.2028   10.6796   18.5319 C   0  0  0  0  0  0  0  0  0  0  0  0
   10.0359    5.8876   23.7942 C   0  0  0  0  0  0  0  0  0  0  0  0
   10.5659    6.8841   21.7821 C   0  0  0  0  0  0  0  0  0  0  0  0
    9.4075    8.5952   18.0678 C   0  0  0  0  0  0  0  0  0  0  0  0
   12.0794    6.5992   19.0565 C   0  0  0  0  0  0  0  0  0  0  0  0
    8.9443    9.0930   16.9556 O   0  0  0  0  0  0  0  0  0  0  0  0
  5  8  1  0
  5 15  1  0
M  END
$$$$

 Created by Python create_sdf_string function

 26  1  0  0  0  0  0  0  0  0999 V2000
    8.8398    7.7443   23.2189 C   0  0  0  0  0  0  0  0  0  0  0  0
    9.6458    7.6122   20.6646 C   0  0  0  0  0  0  0  0  0  0  0  0
    9.0428    8.6783   20.8873 C   0  0  0  0  0  0  0  0  0  0  0  0
   10.1671    7.0107   18.2611 C   0  0  0  0  0  0  0  0  0  0  0  0
   12.0051   11.5138   19.8055 C   0  0  0  0  0  0  0  0  0  0  0  0
   11.1945    6.3183   18.8827 C   0  0  0  0  0  0  0  0  0  0  0  0
    9.7564   10.8268   18.4962 C   0  0  0  0  0  0  0  0  0  0  0  0
    9.9758   11.4549   18.3952 C   0  0  0  0  0  0  0  0  0  0  0  0
    8.4568    7.8096   23.5468 C   0  0  0  0  0  0  0  0  0  0  0  0
    7.6966    7.3092   24.3357 C   0  0  0  0  0  0  0  0  0  0  0  0
   10.9650    6.7279   20.2377 C   0  0  0  0  0  0  0  0  0  0  0  0
    8.3436   10.2600   19.6808 C   0  0  0  0  0  0  0  0  0  0  0  0
    8.0218    8.8446   23.6959 C   0  0  0  0  0  0  0  0  0  0  0  0
   10.5909    6.2792   22.0961 C   0  0  0  0  0  0  0  0  0  0  0  0
   11.8663   11.4271   18.5729 C   0  0  0  0  0  0  0  0  0  0  0  0
    9.8886    6.9959   23.3366 C   0  0  0  0  0  0  0  0  0  0  0  0
    8.8447    6.2014   25.0399 C   0  0  0  0  0  0  0  0  0  0  0  0
   10.1586   10.4008   19.1544 C   0  0  0  0  0  0  0  0  0  0  0  0
   11.6664   10.5216   20.8366 C   0  0  0  0  0  0  0  0  0  0  0  0
    8.2353   10.8924   19.9416 C   0  0  0  0  0  0  0  0  0  0  0  0
   10.2780   10.1984   18.7350 C   0  0  0  0  0  0  0  0  0  0  0  0
    9.1500    6.7409   23.6491 C   0  0  0  0  0  0  0  0  0  0  0  0
   10.7726    6.8921   20.4876 C   0  0  0  0  0  0  0  0  0  0  0  0
    8.8121    9.2085   19.1169 C   0  0  0  0  0  0  0  0  0  0  0  0
   11.9244    6.8198   19.2120 C   0  0  0  0  0  0  0  0  0  0  0  0
    7.9533    9.2212   17.8281 O   0  0  0  0  0  0  0  0  0  0  0  0
 12 20  1  0
M  END
$$$$

 Created by Python create_sdf_string function

 26  5  0  0  0  0  0  0  0  0999 V2000
    9.6682    6.8667   23.7014 C   0  0  0  0  0  0  0  0  0  0  0  0
    9.0053    8.7799   21.4295 C   0  0  0  0  0  0  0  0  0  0  0  0
    9.4540    8.0601   21.6819 C   0  0  0  0  0  0  0  0  0  0  0  0
    8.5917    8.3133   19.8084 C   0  0  0  0  0  0  0  0  0  0  0  0
   12.1264   12.2345   18.3068 C   0  0  0  0  0  0  0  0  0  0  0  0
   12.0636    5.7669   19.9007 C   0  0  0  0  0  0  0  0  0  0  0  0
    8.7995    8.8132   19.2993 C   0  0  0  0  0  0  0  0  0  0  0  0
   10.4080   11.8396   18.5450 C   0  0  0  0  0  0  0  0  0  0  0  0
    7.2067    7.5216   23.6837 C   0  0  0  0  0  0  0  0  0  0  0  0
    7.6694    7.2760   23.7691 C   0  0  0  0  0  0  0  0  0  0  0  0
   11.8517    7.2125   21.2020 C   0  0  0  0  0  0  0  0  0  0  0  0
    9.4886   10.5773   20.7553 C   0  0  0  0  0  0  0  0  0  0  0  0
    9.8159    8.5333   22.3691 C   0  0  0  0  0  0  0  0  0  0  0  0
   11.0688    6.5338   22.4969 C   0  0  0  0  0  0  0  0  0  0  0  0
   11.3927   11.0464   18.4051 C   0  0  0  0  0  0  0  0  0  0  0  0
   10.8300    7.2625   22.7000 C   0  0  0  0  0  0  0  0  0  0  0  0
    8.6105    6.3690   24.6200 C   0  0  0  0  0  0  0  0  0  0  0  0
   11.3189   10.9796   18.5771 C   0  0  0  0  0  0  0  0  0  0  0  0
   11.6619    7.4983   21.4982 C   0  0  0  0  0  0  0  0  0  0  0  0
    8.4330   10.2170   19.4274 C   0  0  0  0  0  0  0  0  0  0  0  0
   10.5020   11.9344   18.6980 C   0  0  0  0  0  0  0  0  0  0  0  0
    8.3593    6.5289   22.9152 C   0  0  0  0  0  0  0  0  0  0  0  0
   11.5421    5.2492   20.3680 C   0  0  0  0  0  0  0  0  0  0  0  0
    9.2828   10.0672   19.5979 C   0  0  0  0  0  0  0  0  0  0  0  0
   12.6976    5.9608   19.5222 C   0  0  0  0  0  0  0  0  0  0  0  0
    7.0998    8.4066   19.7542 C   0  0  0  0  0  0  0  0  0  0  0  0
  6 23  4  0
  6 25  4  0
  8 21  1  0
  9 10  1  0
 15 18  1  0
M  END
$$$$

 Created by Python create_sdf_string function

 26  3  0  0  0  0  0  0  0  0999 V2000
   10.0529    6.0797   22.7354 C   0  0  0  0  0  0  0  0  0  0  0  0
    8.6086    9.0991   21.1745 C   0  0  0  0  0  0  0  0  0  0  0  0
   10.2333    6.0808   21.7480 C   0  0  0  0  0  0  0  0  0  0  0  0
    9.4805    9.2976   18.6333 C   0  0  0  0  0  0  0  0  0  0  0  0
   11.2261   11.9880   17.5770 C   0  0  0  0  0  0  0  0  0  0  0  0
   11.4974    5.2946   19.2713 C   0  0  0  0  0  0  0  0  0  0  0  0
    8.5998    9.1792   19.3192 C   0  0  0  0  0  0  0  0  0  0  0  0
    9.2234   10.6889   18.0470 C   0  0  0  0  0  0  0  0  0  0  0  0
    7.3628    7.4536   22.7685 C   0  0  0  0  0  0  0  0  0  0  0  0
    7.6309    6.6463   23.9244 C   0  0  0  0  0  0  0  0  0  0  0  0
   11.7545    5.6935   21.5274 C   0  0  0  0  0  0  0  0  0  0  0  0
    9.7170   10.3448   18.9357 C   0  0  0  0  0  0  0  0  0  0  0  0
    9.2779    8.3383   21.9630 C   0  0  0  0  0  0  0  0  0  0  0  0
    9.5198    5.9785   23.5438 C   0  0  0  0  0  0  0  0  0  0  0  0
   10.2392   10.4543   16.8020 C   0  0  0  0  0  0  0  0  0  0  0  0
   10.3797    7.7188   23.1160 C   0  0  0  0  0  0  0  0  0  0  0  0
    9.1877    6.3315   24.5031 C   0  0  0  0  0  0  0  0  0  0  0  0
   10.9494   10.5887   17.7039 C   0  0  0  0  0  0  0  0  0  0  0  0
    9.6697    8.3532   21.9841 C   0  0  0  0  0  0  0  0  0  0  0  0
    8.8988   10.4192   20.5287 C   0  0  0  0  0  0  0  0  0  0  0  0
    9.1955   10.4660   20.4051 C   0  0  0  0  0  0  0  0  0  0  0  0
    9.9784    5.6606   21.4600 C   0  0  0  0  0  0  0  0  0  0  0  0
   11.2961    4.4448   20.1527 C   0  0  0  0  0  0  0  0  0  0  0  0
    8.1348    9.9872   19.3350 C   0  0  0  0  0  0  0  0  0  0  0  0
   12.1040    6.0872   20.4966 C   0  0  0  0  0  0  0  0  0  0  0  0
    6.9741    9.2241   18.5228 O   0  0  0  0  0  0  0  0  0  0  0  0
  3 22  4  0
  6 23  4  0
 13 19  1  0
M  END
$$$$

 Created by Python create_sdf_string function

 26  0  0  0  0  0  0  0  0  0999 V2000
    8.7257    7.1811   21.8920 C   0  0  0  0  0  0  0  0  0  0  0  0
    9.9168   10.2533   21.0928 C   0  0  0  0  0  0  0  0  0  0  0  0
   10.8817    7.1971   21.3952 C   0  0  0  0  0  0  0  0  0  0  0  0
   10.3743    9.9368   18.0405 C   0  0  0  0  0  0  0  0  0  0  0  0
   10.2324   12.4804   18.8667 C   0  0  0  0  0  0  0  0  0  0  0  0
   11.1619    7.3307   17.7538 C   0  0  0  0  0  0  0  0  0  0  0  0
    9.6580    8.7666   19.3724 C   0  0  0  0  0  0  0  0  0  0  0  0
   10.1466   10.8309   17.7357 C   0  0  0  0  0  0  0  0  0  0  0  0
    8.0040    5.9258   22.4436 C   0  0  0  0  0  0  0  0  0  0  0  0
    7.6415    6.8212   22.6147 C   0  0  0  0  0  0  0  0  0  0  0  0
   10.9791    6.5426   20.0886 C   0  0  0  0  0  0  0  0  0  0  0  0
   10.3222    8.6497   17.6023 C   0  0  0  0  0  0  0  0  0  0  0  0
   10.2738    6.6726   22.2021 C   0  0  0  0  0  0  0  0  0  0  0  0
   10.4447    4.7701   24.0564 O   0  0  0  0  0  0  0  0  0  0  0  0
   10.5529   10.5320   16.6371 O   0  0  0  0  0  0  0  0  0  0  0  0
   10.3133    6.8694   22.7594 C   0  0  0  0  0  0  0  0  0  0  0  0
    8.9636    5.6038   23.8046 C   0  0  0  0  0  0  0  0  0  0  0  0
   10.4891   11.1120   17.9464 C   0  0  0  0  0  0  0  0  0  0  0  0
    9.2808    9.0280   21.6196 C   0  0  0  0  0  0  0  0  0  0  0  0
   10.5043   11.1365   20.0565 C   0  0  0  0  0  0  0  0  0  0  0  0
    9.3751   10.8887   20.3713 C   0  0  0  0  0  0  0  0  0  0  0  0
   10.6969    5.9599   21.8810 C   0  0  0  0  0  0  0  0  0  0  0  0
   11.3016    5.6035   21.4146 C   0  0  0  0  0  0  0  0  0  0  0  0
    8.6138    9.7794   19.2985 C   0  0  0  0  0  0  0  0  0  0  0  0
   11.7608    5.6001   21.7087 C   0  0  0  0  0  0  0  0  0  0  0  0
    8.4252   10.9557   19.3027 C   0  0  0  0  0  0  0  0  0  0  0  0
M  END
$$$$

 Created by Python create_sdf_string function

 26  0  0  0  0  0  0  0  0  0999 V2000
   10.8874    6.7124   20.8963 C   0  0  0  0  0  0  0  0  0  0  0  0
   10.8325   10.9929   20.0115 C   0  0  0  0  0  0  0  0  0  0  0  0
   10.7725    8.0409   19.9200 C   0  0  0  0  0  0  0  0  0  0  0  0
   10.3973    9.9511   16.9249 C   0  0  0  0  0  0  0  0  0  0  0  0
    9.8265   12.5343   18.7725 C   0  0  0  0  0  0  0  0  0  0  0  0
   10.5559    8.2658   16.9014 C   0  0  0  0  0  0  0  0  0  0  0  0
    9.6076   10.1498   20.9459 C   0  0  0  0  0  0  0  0  0  0  0  0
   10.2576   10.8603   17.9497 C   0  0  0  0  0  0  0  0  0  0  0  0
    8.6777    5.4911   22.2541 C   0  0  0  0  0  0  0  0  0  0  0  0
    7.8593    7.5404   23.2234 C   0  0  0  0  0  0  0  0  0  0  0  0
   10.4222    6.7891   19.1655 C   0  0  0  0  0  0  0  0  0  0  0  0
   10.1654    8.2356   18.0246 C   0  0  0  0  0  0  0  0  0  0  0  0
    9.8191    7.6836   22.2198 C   0  0  0  0  0  0  0  0  0  0  0  0
    9.5062    6.2672   23.9676 C   0  0  0  0  0  0  0  0  0  0  0  0
   10.8028    9.1621   17.7612 C   0  0  0  0  0  0  0  0  0  0  0  0
   10.3434    6.7851   22.9517 C   0  0  0  0  0  0  0  0  0  0  0  0
    8.4454    5.6270   23.6768 O   0  0  0  0  0  0  0  0  0  0  0  0
   10.5794   11.8959   16.8907 O   0  0  0  0  0  0  0  0  0  0  0  0
    8.3956    7.1847   22.3602 C   0  0  0  0  0  0  0  0  0  0  0  0
    9.6730   10.4986   21.9790 O   0  0  0  0  0  0  0  0  0  0  0  0
   10.8932    9.2382   19.4151 C   0  0  0  0  0  0  0  0  0  0  0  0
    9.7579    5.0796   21.3144 C   0  0  0  0  0  0  0  0  0  0  0  0
   10.7621    5.8030   20.8891 C   0  0  0  0  0  0  0  0  0  0  0  0
    8.8961   10.1668   20.4026 C   0  0  0  0  0  0  0  0  0  0  0  0
   11.7785    6.1046   20.9159 O   0  0  0  0  0  0  0  0  0  0  0  0
    9.6554   11.8352   20.6349 C   0  0  0  0  0  0  0  0  0  0  0  0
M  END
$$$$

 Created by Python create_sdf_string function

 26  4  0  0  0  0  0  0  0  0999 V2000
   11.0400    6.4836   21.4115 C   0  0  0  0  0  0  0  0  0  0  0  0
    9.2539   11.5701   19.2317 C   0  0  0  0  0  0  0  0  0  0  0  0
   11.1771    5.9873   19.5050 C   0  0  0  0  0  0  0  0  0  0  0  0
   11.9828    9.7837   16.1372 C   0  0  0  0  0  0  0  0  0  0  0  0
    9.3533   11.2619   19.3839 C   0  0  0  0  0  0  0  0  0  0  0  0
   11.5891    9.2826   16.9976 C   0  0  0  0  0  0  0  0  0  0  0  0
    9.6525    9.6983   21.8688 C   0  0  0  0  0  0  0  0  0  0  0  0
   10.3847   10.8297   17.9776 C   0  0  0  0  0  0  0  0  0  0  0  0
    8.6297    5.3108   22.6039 C   0  0  0  0  0  0  0  0  0  0  0  0
    9.0498    6.2385   23.4232 C   0  0  0  0  0  0  0  0  0  0  0  0
   12.0318    8.8108   18.2006 C   0  0  0  0  0  0  0  0  0  0  0  0
    9.3219    9.9732   19.2937 C   0  0  0  0  0  0  0  0  0  0  0  0
   10.0463    6.8167   22.2245 C   0  0  0  0  0  0  0  0  0  0  0  0
    8.8820    6.7337   24.6307 O   0  0  0  0  0  0  0  0  0  0  0  0
   11.4607    7.9417   18.1690 C   0  0  0  0  0  0  0  0  0  0  0  0
   10.7443    7.0814   22.1326 C   0  0  0  0  0  0  0  0  0  0  0  0
    7.9252    6.0398   23.3238 C   0  0  0  0  0  0  0  0  0  0  0  0
   10.1255   12.1333   17.4607 O   0  0  0  0  0  0  0  0  0  0  0  0
    8.5388    7.4177   21.4870 C   0  0  0  0  0  0  0  0  0  0  0  0
    9.6392    9.9919   22.4632 C   0  0  0  0  0  0  0  0  0  0  0  0
   10.8373   10.1660   18.4928 C   0  0  0  0  0  0  0  0  0  0  0  0
    9.7289    5.6021   21.6305 C   0  0  0  0  0  0  0  0  0  0  0  0
    9.7022    7.2153   20.0833 C   0  0  0  0  0  0  0  0  0  0  0  0
    8.7738    9.4467   21.3423 C   0  0  0  0  0  0  0  0  0  0  0  0
   11.0601    7.9481   19.3881 C   0  0  0  0  0  0  0  0  0  0  0  0
    9.6464   11.1654   20.9098 C   0  0  0  0  0  0  0  0  0  0  0  0
  2  5  1  0
  4  6  1  0
  7 20  1  0
  8 21  1  0
M  END
$$$$

 Created by Python create_sdf_string function

 26  5  0  0  0  0  0  0  0  0999 V2000
   12.0661    6.0996   20.4717 C   0  0  0  0  0  0  0  0  0  0  0  0
    9.8316   12.2084   18.2737 C   0  0  0  0  0  0  0  0  0  0  0  0
   10.9568    6.0812   19.7063 C   0  0  0  0  0  0  0  0  0  0  0  0
   12.4281    9.5621   17.6303 C   0  0  0  0  0  0  0  0  0  0  0  0
    9.8834   11.2388   19.3417 C   0  0  0  0  0  0  0  0  0  0  0  0
   11.5315   11.2796   17.9424 C   0  0  0  0  0  0  0  0  0  0  0  0
   10.0190    8.7680   23.0302 O   0  0  0  0  0  0  0  0  0  0  0  0
   10.2915   10.0748   18.6325 C   0  0  0  0  0  0  0  0  0  0  0  0
    8.8717    3.7547   21.3049 C   0  0  0  0  0  0  0  0  0  0  0  0
    8.9519    4.9826   21.9436 C   0  0  0  0  0  0  0  0  0  0  0  0
   10.6063    9.8125   18.2188 C   0  0  0  0  0  0  0  0  0  0  0  0
   11.3735    7.5321   18.6508 C   0  0  0  0  0  0  0  0  0  0  0  0
    9.3963    6.7290   22.3626 C   0  0  0  0  0  0  0  0  0  0  0  0
    8.7683    5.0754   23.6338 C   0  0  0  0  0  0  0  0  0  0  0  0
   11.7959    6.6005   18.5574 C   0  0  0  0  0  0  0  0  0  0  0  0
   10.6433    6.0493   22.3286 C   0  0  0  0  0  0  0  0  0  0  0  0
    8.1858    5.7908   23.7490 C   0  0  0  0  0  0  0  0  0  0  0  0
   10.9054   12.5709   17.4638 C   0  0  0  0  0  0  0  0  0  0  0  0
    9.0982    7.9593   21.3216 O   0  0  0  0  0  0  0  0  0  0  0  0
    9.0651    8.1275   22.5691 C   0  0  0  0  0  0  0  0  0  0  0  0
   11.0660   10.1004   18.6872 C   0  0  0  0  0  0  0  0  0  0  0  0
    8.6515    5.3028   21.6847 C   0  0  0  0  0  0  0  0  0  0  0  0
   11.0572    5.9739   19.6683 C   0  0  0  0  0  0  0  0  0  0  0  0
    9.1321    9.3980   21.5871 C   0  0  0  0  0  0  0  0  0  0  0  0
   11.5147    8.1549   18.5726 C   0  0  0  0  0  0  0  0  0  0  0  0
    9.5025   10.3088   20.3080 C   0  0  0  0  0  0  0  0  0  0  0  0
  2 18  1  0
  3 23  4  0
 10 22  1  0
 12 15  4  0
 13 20  1  0
M  END
$$$$

 Created by Python create_sdf_string function

 26  3  0  0  0  0  0  0  0  0999 V2000
   11.9470    5.8431   21.0303 C   0  0  0  0  0  0  0  0  0  0  0  0
   11.0560   11.5926   17.6452 C   0  0  0  0  0  0  0  0  0  0  0  0
   12.0245    5.5673   19.6535 C   0  0  0  0  0  0  0  0  0  0  0  0
   12.1202   10.1020   17.5224 C   0  0  0  0  0  0  0  0  0  0  0  0
    9.2636   11.5037   18.1120 C   0  0  0  0  0  0  0  0  0  0  0  0
   10.7390    9.9584   19.2752 C   0  0  0  0  0  0  0  0  0  0  0  0
    9.9285    9.9392   21.5075 C   0  0  0  0  0  0  0  0  0  0  0  0
   10.7967   11.3577   18.0458 C   0  0  0  0  0  0  0  0  0  0  0  0
   10.1133    5.4382   21.9173 C   0  0  0  0  0  0  0  0  0  0  0  0
    8.0779    5.1519   22.2065 C   0  0  0  0  0  0  0  0  0  0  0  0
   10.9831    9.3469   18.3787 C   0  0  0  0  0  0  0  0  0  0  0  0
   11.4609    8.9518   18.8318 C   0  0  0  0  0  0  0  0  0  0  0  0
    9.4177    6.6704   23.1831 C   0  0  0  0  0  0  0  0  0  0  0  0
    7.9325    5.6714   22.9404 C   0  0  0  0  0  0  0  0  0  0  0  0
   12.7151    7.3241   18.8451 C   0  0  0  0  0  0  0  0  0  0  0  0
   11.2184    5.8339   21.8499 C   0  0  0  0  0  0  0  0  0  0  0  0
    8.5342    6.7222   22.6708 C   0  0  0  0  0  0  0  0  0  0  0  0
   10.7177   13.0082   17.0970 C   0  0  0  0  0  0  0  0  0  0  0  0
    8.3288    7.5859   20.9375 C   0  0  0  0  0  0  0  0  0  0  0  0
    9.0317    8.4274   22.4730 C   0  0  0  0  0  0  0  0  0  0  0  0
   10.1053   12.0850   17.0919 C   0  0  0  0  0  0  0  0  0  0  0  0
    8.3291    7.1304   21.9005 C   0  0  0  0  0  0  0  0  0  0  0  0
   11.6042    6.0897   19.5147 C   0  0  0  0  0  0  0  0  0  0  0  0
    9.1982    9.0310   21.1034 C   0  0  0  0  0  0  0  0  0  0  0  0
   11.3207    8.0157   19.1229 C   0  0  0  0  0  0  0  0  0  0  0  0
    9.6505   10.5122   21.0052 C   0  0  0  0  0  0  0  0  0  0  0  0
  1 16  4  0
  2  8  4  0
  3 23  4  0
M  END
$$$$

 Created by Python create_sdf_string function

 26  3  0  0  0  0  0  0  0  0999 V2000
   11.3165    6.2694   21.5053 C   0  0  0  0  0  0  0  0  0  0  0  0
   10.9056   11.2142   17.2832 C   0  0  0  0  0  0  0  0  0  0  0  0
   11.8664    5.4183   20.5912 C   0  0  0  0  0  0  0  0  0  0  0  0
   12.3241   10.8222   16.7715 O   0  0  0  0  0  0  0  0  0  0  0  0
   10.2279   10.8208   18.2110 C   0  0  0  0  0  0  0  0  0  0  0  0
   10.1479    9.7415   20.2478 C   0  0  0  0  0  0  0  0  0  0  0  0
    9.9708    8.1462   21.9904 C   0  0  0  0  0  0  0  0  0  0  0  0
    9.7690   11.9721   18.4424 C   0  0  0  0  0  0  0  0  0  0  0  0
    8.6686    6.6202   23.9168 C   0  0  0  0  0  0  0  0  0  0  0  0
    7.5457    5.1699   21.9675 C   0  0  0  0  0  0  0  0  0  0  0  0
   11.1468    9.8039   18.1626 C   0  0  0  0  0  0  0  0  0  0  0  0
   11.2542    9.7529   17.8978 C   0  0  0  0  0  0  0  0  0  0  0  0
    8.2777    6.4564   24.4755 C   0  0  0  0  0  0  0  0  0  0  0  0
    7.2163    5.3959   22.7791 C   0  0  0  0  0  0  0  0  0  0  0  0
   12.0311    8.0026   21.1631 C   0  0  0  0  0  0  0  0  0  0  0  0
   10.8505    5.3120   21.9107 C   0  0  0  0  0  0  0  0  0  0  0  0
    8.6455    6.6739   22.3173 C   0  0  0  0  0  0  0  0  0  0  0  0
   11.3390   12.0039   16.4554 C   0  0  0  0  0  0  0  0  0  0  0  0
    8.4752    5.7219   21.8526 C   0  0  0  0  0  0  0  0  0  0  0  0
    9.8594    7.6286   22.6754 C   0  0  0  0  0  0  0  0  0  0  0  0
    9.2645   11.7607   16.7576 O   0  0  0  0  0  0  0  0  0  0  0  0
    9.2130    7.7100   22.2132 C   0  0  0  0  0  0  0  0  0  0  0  0
   11.9792    7.0369   20.4079 C   0  0  0  0  0  0  0  0  0  0  0  0
   10.3520    8.9853   20.8147 C   0  0  0  0  0  0  0  0  0  0  0  0
   10.9039    9.6185   19.6079 C   0  0  0  0  0  0  0  0  0  0  0  0
    9.6609   11.1327   20.3132 C   0  0  0  0  0  0  0  0  0  0  0  0
  2 18  1  0
  6 24  1  0
  9 13  1  0
M  END
$$$$

 Created by Python create_sdf_string function

 26  7  0  0  0  0  0  0  0  0999 V2000
   11.5100    5.8244   20.9953 C   0  0  0  0  0  0  0  0  0  0  0  0
   11.1960   12.3586   16.7802 C   0  0  0  0  0  0  0  0  0  0  0  0
   10.6340    3.9127   20.7439 C   0  0  0  0  0  0  0  0  0  0  0  0
   10.8783   11.8714   18.5056 C   0  0  0  0  0  0  0  0  0  0  0  0
   10.3426   12.0137   18.6177 C   0  0  0  0  0  0  0  0  0  0  0  0
   10.5889    9.6305   20.0774 C   0  0  0  0  0  0  0  0  0  0  0  0
    9.9703    8.7938   21.5619 C   0  0  0  0  0  0  0  0  0  0  0  0
   10.6696   10.9354   19.0361 C   0  0  0  0  0  0  0  0  0  0  0  0
    8.5267    6.1665   24.2067 C   0  0  0  0  0  0  0  0  0  0  0  0
    7.9532    4.3929   22.1962 C   0  0  0  0  0  0  0  0  0  0  0  0
   11.5405    9.1402   18.6842 C   0  0  0  0  0  0  0  0  0  0  0  0
   12.0399    8.5110   18.3110 C   0  0  0  0  0  0  0  0  0  0  0  0
    8.8459    6.6103   24.3989 C   0  0  0  0  0  0  0  0  0  0  0  0
    7.6692    5.2413   23.2214 C   0  0  0  0  0  0  0  0  0  0  0  0
   11.0395    8.0141   21.3464 C   0  0  0  0  0  0  0  0  0  0  0  0
   10.3931    5.2678   21.8645 C   0  0  0  0  0  0  0  0  0  0  0  0
    9.1024    6.4797   22.9522 C   0  0  0  0  0  0  0  0  0  0  0  0
   11.8174   11.7959   16.5792 C   0  0  0  0  0  0  0  0  0  0  0  0
    8.0769    3.7204   21.5285 C   0  0  0  0  0  0  0  0  0  0  0  0
   10.2868    6.3312   22.2859 C   0  0  0  0  0  0  0  0  0  0  0  0
   10.4520   12.9002   16.8009 C   0  0  0  0  0  0  0  0  0  0  0  0
   10.2388    7.9866   21.9375 C   0  0  0  0  0  0  0  0  0  0  0  0
   11.8016    5.4524   20.4472 C   0  0  0  0  0  0  0  0  0  0  0  0
   11.3126    8.0736   20.8101 C   0  0  0  0  0  0  0  0  0  0  0  0
   11.2758   10.0215   18.3251 C   0  0  0  0  0  0  0  0  0  0  0  0
    9.7616   11.2828   20.3029 C   0  0  0  0  0  0  0  0  0  0  0  0
  1 23  1  0
  2 18  1  0
  2 21  1  0
  7 22  4  0
  9 13  1  0
 10 14  1  0
 10 19  1  0
M  END
$$$$

 Created by Python create_sdf_string function

 26  0  0  0  0  0  0  0  0  0999 V2000
   12.9869    6.1542   20.2277 C   0  0  0  0  0  0  0  0  0  0  0  0
   10.2075   11.9508   18.3816 C   0  0  0  0  0  0  0  0  0  0  0  0
   11.0024    4.0107   21.8661 C   0  0  0  0  0  0  0  0  0  0  0  0
    9.8566   11.8676   19.1968 C   0  0  0  0  0  0  0  0  0  0  0  0
   10.2122   11.7603   17.8363 C   0  0  0  0  0  0  0  0  0  0  0  0
    9.7298    6.6743   21.5652 C   0  0  0  0  0  0  0  0  0  0  0  0
    9.6535    9.5756   21.2247 C   0  0  0  0  0  0  0  0  0  0  0  0
    9.7345   12.0313   19.6936 C   0  0  0  0  0  0  0  0  0  0  0  0
    8.8530    6.0357   23.5005 C   0  0  0  0  0  0  0  0  0  0  0  0
    7.6268    5.3891   22.1439 C   0  0  0  0  0  0  0  0  0  0  0  0
   11.4971    8.2494   19.6309 C   0  0  0  0  0  0  0  0  0  0  0  0
   12.3724    7.7806   18.9165 C   0  0  0  0  0  0  0  0  0  0  0  0
    9.7391    5.6922   23.4232 C   0  0  0  0  0  0  0  0  0  0  0  0
    8.3793    5.0111   23.0493 C   0  0  0  0  0  0  0  0  0  0  0  0
   11.1515    8.4930   19.6049 C   0  0  0  0  0  0  0  0  0  0  0  0
   11.5536    4.3774   21.5243 C   0  0  0  0  0  0  0  0  0  0  0  0
   10.4369    5.3766   21.7888 C   0  0  0  0  0  0  0  0  0  0  0  0
   10.4816   11.2463   17.1317 C   0  0  0  0  0  0  0  0  0  0  0  0
    8.9480    4.2152   22.1221 C   0  0  0  0  0  0  0  0  0  0  0  0
   12.4444    5.3359   20.8304 C   0  0  0  0  0  0  0  0  0  0  0  0
   10.0667   13.1838   17.1762 C   0  0  0  0  0  0  0  0  0  0  0  0
   11.3171    7.5499   20.9485 C   0  0  0  0  0  0  0  0  0  0  0  0
   11.8890    3.4079   21.2094 C   0  0  0  0  0  0  0  0  0  0  0  0
   10.0558    8.5602   21.2019 C   0  0  0  0  0  0  0  0  0  0  0  0
   10.9743    9.4822   18.8904 C   0  0  0  0  0  0  0  0  0  0  0  0
    9.7619   10.9623   19.9276 C   0  0  0  0  0  0  0  0  0  0  0  0
M  END
$$$$

 Created by Python create_sdf_string function

 26  9  0  0  0  0  0  0  0  0999 V2000
   12.4726    7.2510   19.5773 C   0  0  0  0  0  0  0  0  0  0  0  0
   10.4612   12.7390   18.4801 C   0  0  0  0  0  0  0  0  0  0  0  0
   10.7329    4.9598   21.8703 C   0  0  0  0  0  0  0  0  0  0  0  0
   10.1956   10.9159   19.5870 C   0  0  0  0  0  0  0  0  0  0  0  0
    9.1179   12.4309   19.4915 C   0  0  0  0  0  0  0  0  0  0  0  0
    9.6398    6.8870   21.9397 C   0  0  0  0  0  0  0  0  0  0  0  0
    9.6317    9.5758   20.5699 C   0  0  0  0  0  0  0  0  0  0  0  0
    9.2170   12.2872   18.8118 C   0  0  0  0  0  0  0  0  0  0  0  0
    7.6787    6.4434   23.2428 C   0  0  0  0  0  0  0  0  0  0  0  0
    8.2914    6.6104   22.8581 C   0  0  0  0  0  0  0  0  0  0  0  0
   10.4930    8.5943   20.1111 C   0  0  0  0  0  0  0  0  0  0  0  0
   12.3312    6.6205   19.0978 C   0  0  0  0  0  0  0  0  0  0  0  0
    9.6593    6.2035   24.3032 C   0  0  0  0  0  0  0  0  0  0  0  0
    8.1398    5.6773   21.9567 C   0  0  0  0  0  0  0  0  0  0  0  0
    9.7633    8.7907   20.6795 C   0  0  0  0  0  0  0  0  0  0  0  0
   12.7882    5.6889   21.0543 C   0  0  0  0  0  0  0  0  0  0  0  0
    9.8247    6.2835   22.2631 C   0  0  0  0  0  0  0  0  0  0  0  0
   10.7359   12.0752   18.7763 C   0  0  0  0  0  0  0  0  0  0  0  0
   10.0211    4.3907   22.0008 C   0  0  0  0  0  0  0  0  0  0  0  0
   12.3306    5.7533   20.8404 C   0  0  0  0  0  0  0  0  0  0  0  0
    9.3153   13.5238   17.4733 C   0  0  0  0  0  0  0  0  0  0  0  0
   11.7760    8.0594   20.1834 C   0  0  0  0  0  0  0  0  0  0  0  0
   11.9333    4.6238   21.3427 C   0  0  0  0  0  0  0  0  0  0  0  0
    8.6128    9.6415   20.8025 C   0  0  0  0  0  0  0  0  0  0  0  0
   11.0439    9.3765   19.6645 C   0  0  0  0  0  0  0  0  0  0  0  0
    8.6738   11.6096   20.1407 C   0  0  0  0  0  0  0  0  0  0  0  0
  1 12  4  0
  1 22  4  0
  2 18  1  0
  3 19  4  0
  5 26  4  0
  6 17  4  0
  9 10  1  0
 11 22  4  0
 16 20  4  0
M  END
$$$$

 Created by Python create_sdf_string function

 26  1  0  0  0  0  0  0  0  0999 V2000
   11.8870    7.8630   19.4614 C   0  0  0  0  0  0  0  0  0  0  0  0
   11.4549   13.0868   18.1654 C   0  0  0  0  0  0  0  0  0  0  0  0
   13.1587    5.1766   21.5450 O   0  0  0  0  0  0  0  0  0  0  0  0
    9.9476   11.4798   19.0625 C   0  0  0  0  0  0  0  0  0  0  0  0
    9.7623   12.1241   19.5460 C   0  0  0  0  0  0  0  0  0  0  0  0
   10.6068    8.5195   20.6004 C   0  0  0  0  0  0  0  0  0  0  0  0
   10.1906   10.4796   20.1115 C   0  0  0  0  0  0  0  0  0  0  0  0
   11.1714   12.5503   18.2009 C   0  0  0  0  0  0  0  0  0  0  0  0
    8.2408    6.0589   23.5977 C   0  0  0  0  0  0  0  0  0  0  0  0
    8.5634    7.2038   23.0752 C   0  0  0  0  0  0  0  0  0  0  0  0
   11.7482    7.6787   20.3268 C   0  0  0  0  0  0  0  0  0  0  0  0
   13.6461    6.0433   19.4743 O   0  0  0  0  0  0  0  0  0  0  0  0
    8.7929    5.9844   22.6516 C   0  0  0  0  0  0  0  0  0  0  0  0
    8.7194    4.8465   22.0123 C   0  0  0  0  0  0  0  0  0  0  0  0
    9.5916   10.1574   20.8289 C   0  0  0  0  0  0  0  0  0  0  0  0
   11.2813    5.9139   20.4768 C   0  0  0  0  0  0  0  0  0  0  0  0
    9.9715    5.6501   21.7733 C   0  0  0  0  0  0  0  0  0  0  0  0
   12.2008   11.5072   18.2836 C   0  0  0  0  0  0  0  0  0  0  0  0
    9.6185    5.4375   22.4403 C   0  0  0  0  0  0  0  0  0  0  0  0
   12.8301    5.0694   20.5600 C   0  0  0  0  0  0  0  0  0  0  0  0
   10.4553   14.0047   18.6673 C   0  0  0  0  0  0  0  0  0  0  0  0
   11.0969    8.3385   20.2341 C   0  0  0  0  0  0  0  0  0  0  0  0
   12.4872    5.9313   21.5338 C   0  0  0  0  0  0  0  0  0  0  0  0
    8.9187   10.7079   21.5837 C   0  0  0  0  0  0  0  0  0  0  0  0
   11.4953    9.8644   18.9309 C   0  0  0  0  0  0  0  0  0  0  0  0
    8.9079   12.3524   20.5846 C   0  0  0  0  0  0  0  0  0  0  0  0
  2  8  1  0
M  END
$$$$

 Created by Python create_sdf_string function

 26  2  0  0  0  0  0  0  0  0999 V2000
   11.7833    7.9201   19.8338 C   0  0  0  0  0  0  0  0  0  0  0  0
   10.8970   13.4473   17.9311 C   0  0  0  0  0  0  0  0  0  0  0  0
   11.8533    5.6202   20.9151 C   0  0  0  0  0  0  0  0  0  0  0  0
   10.6978   11.4000   19.3886 C   0  0  0  0  0  0  0  0  0  0  0  0
    9.8385   13.1612   19.2116 C   0  0  0  0  0  0  0  0  0  0  0  0
   10.0034    8.0563   19.6873 C   0  0  0  0  0  0  0  0  0  0  0  0
   10.2256    9.6657   21.0068 C   0  0  0  0  0  0  0  0  0  0  0  0
   11.0821   12.9497   18.5741 C   0  0  0  0  0  0  0  0  0  0  0  0
    8.0822    5.2418   23.2395 C   0  0  0  0  0  0  0  0  0  0  0  0
    8.4396    6.6488   21.5712 C   0  0  0  0  0  0  0  0  0  0  0  0
    9.3455    6.6216   20.6957 C   0  0  0  0  0  0  0  0  0  0  0  0
   12.4438    5.6373   19.3638 C   0  0  0  0  0  0  0  0  0  0  0  0
    8.3074    5.6554   22.2634 C   0  0  0  0  0  0  0  0  0  0  0  0
   10.0050    5.2610   22.9043 C   0  0  0  0  0  0  0  0  0  0  0  0
   10.5000   10.4737   20.6006 C   0  0  0  0  0  0  0  0  0  0  0  0
   12.4005    6.1178   22.0399 C   0  0  0  0  0  0  0  0  0  0  0  0
   10.7194    6.6931   21.1569 C   0  0  0  0  0  0  0  0  0  0  0  0
   11.9432   12.0859   18.5686 C   0  0  0  0  0  0  0  0  0  0  0  0
    9.9562    6.3032   21.3665 C   0  0  0  0  0  0  0  0  0  0  0  0
   12.9417    5.3176   20.7173 C   0  0  0  0  0  0  0  0  0  0  0  0
   10.0656   14.1560   18.9693 C   0  0  0  0  0  0  0  0  0  0  0  0
   10.4615    8.8657   20.0364 C   0  0  0  0  0  0  0  0  0  0  0  0
   12.1542    4.6164   21.8605 C   0  0  0  0  0  0  0  0  0  0  0  0
    8.9877   10.2396   21.3168 O   0  0  0  0  0  0  0  0  0  0  0  0
   11.9703    9.6673   19.0732 C   0  0  0  0  0  0  0  0  0  0  0  0
    9.7047   11.6489   20.0204 C   0  0  0  0  0  0  0  0  0  0  0  0
  9 13  1  0
 10 13  1  0
M  END
$$$$

 Created by Python create_sdf_string function

 26  3  0  0  0  0  0  0  0  0999 V2000
   11.5157    8.8173   19.3372 C   0  0  0  0  0  0  0  0  0  0  0  0
   11.7167   13.2011   19.1933 O   0  0  0  0  0  0  0  0  0  0  0  0
   12.1455    5.9514   20.4883 C   0  0  0  0  0  0  0  0  0  0  0  0
   10.1990   11.2781   19.2871 C   0  0  0  0  0  0  0  0  0  0  0  0
   10.3825   12.6218   18.3609 C   0  0  0  0  0  0  0  0  0  0  0  0
   10.0219    7.9332   20.6204 C   0  0  0  0  0  0  0  0  0  0  0  0
   10.6250    9.2735   22.3508 O   0  0  0  0  0  0  0  0  0  0  0  0
   11.8679   11.6897   19.0552 C   0  0  0  0  0  0  0  0  0  0  0  0
    8.6839    5.9081   22.0380 C   0  0  0  0  0  0  0  0  0  0  0  0
    7.6325    5.9744   21.8727 C   0  0  0  0  0  0  0  0  0  0  0  0
    9.5764    6.4650   20.7824 C   0  0  0  0  0  0  0  0  0  0  0  0
   12.8841    6.5666   19.5480 C   0  0  0  0  0  0  0  0  0  0  0  0
    8.0642    5.5635   22.5780 C   0  0  0  0  0  0  0  0  0  0  0  0
    9.1895    6.6348   22.6895 C   0  0  0  0  0  0  0  0  0  0  0  0
   10.5794    9.8656   20.5986 C   0  0  0  0  0  0  0  0  0  0  0  0
   13.5909    5.9053   20.6701 C   0  0  0  0  0  0  0  0  0  0  0  0
   11.1878    6.0694   21.6426 C   0  0  0  0  0  0  0  0  0  0  0  0
   10.6955   11.5152   20.7387 C   0  0  0  0  0  0  0  0  0  0  0  0
   10.0012    6.7546   20.6762 C   0  0  0  0  0  0  0  0  0  0  0  0
   12.5429    5.7490   21.2633 C   0  0  0  0  0  0  0  0  0  0  0  0
   10.9116   13.5826   18.5204 C   0  0  0  0  0  0  0  0  0  0  0  0
    9.2898    9.3054   20.6278 C   0  0  0  0  0  0  0  0  0  0  0  0
   11.5398    5.2201   22.8904 O   0  0  0  0  0  0  0  0  0  0  0  0
    9.3346   10.8996   21.7547 C   0  0  0  0  0  0  0  0  0  0  0  0
   12.3847   10.1153   19.1091 C   0  0  0  0  0  0  0  0  0  0  0  0
   10.6053   11.6830   20.5548 C   0  0  0  0  0  0  0  0  0  0  0  0
  5 21  1  0
 10 13  4  0
 18 26  1  0
M  END
$$$$

 Created by Python create_sdf_string function

 26  5  0  0  0  0  0  0  0  0999 V2000
   11.4914    8.3823   20.2921 C   0  0  0  0  0  0  0  0  0  0  0  0
   11.3603   13.7404   18.6894 O   0  0  0  0  0  0  0  0  0  0  0  0
   10.7252    4.5962   20.7872 O   0  0  0  0  0  0  0  0  0  0  0  0
   10.2588   11.6316   19.8954 C   0  0  0  0  0  0  0  0  0  0  0  0
   10.2254   13.5931   19.0307 O   0  0  0  0  0  0  0  0  0  0  0  0
   10.9170    8.7689   20.2902 C   0  0  0  0  0  0  0  0  0  0  0  0
   10.5798    7.0893   22.6083 O   0  0  0  0  0  0  0  0  0  0  0  0
   11.7963   11.8749   19.1343 O   0  0  0  0  0  0  0  0  0  0  0  0
    7.7098    4.3947   21.8183 C   0  0  0  0  0  0  0  0  0  0  0  0
    7.4802    5.2783   21.6677 C   0  0  0  0  0  0  0  0  0  0  0  0
    8.9323    6.7743   20.8676 C   0  0  0  0  0  0  0  0  0  0  0  0
   12.7085    6.6943   20.1139 C   0  0  0  0  0  0  0  0  0  0  0  0
    9.0886    5.6503   21.9063 C   0  0  0  0  0  0  0  0  0  0  0  0
    7.1852    6.4508   21.8953 C   0  0  0  0  0  0  0  0  0  0  0  0
   10.3999   10.0130   20.7986 C   0  0  0  0  0  0  0  0  0  0  0  0
   13.6516    6.6676   20.4374 O   0  0  0  0  0  0  0  0  0  0  0  0
   10.7095    5.7683   22.3255 C   0  0  0  0  0  0  0  0  0  0  0  0
   10.6324   11.8553   21.0183 C   0  0  0  0  0  0  0  0  0  0  0  0
    9.3089    6.6946   21.5866 C   0  0  0  0  0  0  0  0  0  0  0  0
   12.2582    5.6661   20.6267 C   0  0  0  0  0  0  0  0  0  0  0  0
   11.1260   13.1762   18.7761 C   0  0  0  0  0  0  0  0  0  0  0  0
   10.0140    9.6742   19.8371 O   0  0  0  0  0  0  0  0  0  0  0  0
   11.5297    5.3563   21.4642 C   0  0  0  0  0  0  0  0  0  0  0  0
    9.6798   11.2146   19.8643 C   0  0  0  0  0  0  0  0  0  0  0  0
   11.4803    9.2584   20.0612 C   0  0  0  0  0  0  0  0  0  0  0  0
    9.9883   12.4113   21.1457 C   0  0  0  0  0  0  0  0  0  0  0  0
  2 21  1  0
  4 18  1  0
  4 24  1  0
 13 19  4  0
 18 26  1  0
M  END
$$$$

 Created by Python create_sdf_string function

 26  5  0  0  0  0  0  0  0  0999 V2000
   12.0156    8.1706   20.6549 C   0  0  0  0  0  0  0  0  0  0  0  0
   10.9264   13.4653   18.6905 O   0  0  0  0  0  0  0  0  0  0  0  0
   10.3240    4.7257   21.2227 C   0  0  0  0  0  0  0  0  0  0  0  0
   11.1781   11.2537   20.3011 C   0  0  0  0  0  0  0  0  0  0  0  0
   10.4241   12.3396   19.4680 C   0  0  0  0  0  0  0  0  0  0  0  0
   12.3795    8.5894   21.3513 C   0  0  0  0  0  0  0  0  0  0  0  0
    9.7786    7.4683   22.0571 C   0  0  0  0  0  0  0  0  0  0  0  0
   11.7817   12.5855   18.8635 C   0  0  0  0  0  0  0  0  0  0  0  0
    8.7932    3.4297   22.0593 C   0  0  0  0  0  0  0  0  0  0  0  0
    8.6042    6.3596   21.8145 C   0  0  0  0  0  0  0  0  0  0  0  0
    9.2558    7.9533   20.9151 C   0  0  0  0  0  0  0  0  0  0  0  0
   12.5272    6.1945   20.8232 C   0  0  0  0  0  0  0  0  0  0  0  0
    8.1205    6.0755   22.1150 C   0  0  0  0  0  0  0  0  0  0  0  0
    7.6452    4.4429   21.8410 C   0  0  0  0  0  0  0  0  0  0  0  0
   10.2148   10.7382   19.3370 C   0  0  0  0  0  0  0  0  0  0  0  0
   13.0653    6.4603   20.4050 C   0  0  0  0  0  0  0  0  0  0  0  0
    9.3487    6.6317   22.1688 C   0  0  0  0  0  0  0  0  0  0  0  0
   11.2136   10.7805   20.8281 C   0  0  0  0  0  0  0  0  0  0  0  0
    9.9533    6.1979   21.4940 C   0  0  0  0  0  0  0  0  0  0  0  0
   10.3430    4.9305   21.0782 C   0  0  0  0  0  0  0  0  0  0  0  0
   10.8902   11.9530   18.4023 C   0  0  0  0  0  0  0  0  0  0  0  0
    9.3420    9.2759   20.1042 C   0  0  0  0  0  0  0  0  0  0  0  0
   12.0725    5.0696   21.5382 C   0  0  0  0  0  0  0  0  0  0  0  0
    9.4040   10.4432   19.9584 C   0  0  0  0  0  0  0  0  0  0  0  0
   10.8480    9.8759   20.7790 C   0  0  0  0  0  0  0  0  0  0  0  0
   10.7792   11.5334   22.0696 O   0  0  0  0  0  0  0  0  0  0  0  0
  1  6  1  0
  3 20  4  0
  4 18  1  0
 10 13  1  0
 12 23  4  0
M  END
$$$$

 Created by Python create_sdf_string function

 26  8  0  0  0  0  0  0  0  0999 V2000
   12.7549    9.1115   20.5407 C   0  0  0  0  0  0  0  0  0  0  0  0
   10.9428   13.3589   18.2524 C   0  0  0  0  0  0  0  0  0  0  0  0
   10.0540    3.3586   20.0510 C   0  0  0  0  0  0  0  0  0  0  0  0
   11.4619   11.3635   19.3599 C   0  0  0  0  0  0  0  0  0  0  0  0
   12.6040   12.0416   19.8021 C   0  0  0  0  0  0  0  0  0  0  0  0
   11.8075    7.4366   21.9711 C   0  0  0  0  0  0  0  0  0  0  0  0
   10.9669    6.4281   20.9557 C   0  0  0  0  0  0  0  0  0  0  0  0
   11.7768   12.3316   18.9217 C   0  0  0  0  0  0  0  0  0  0  0  0
    9.6880    4.3937   22.0008 C   0  0  0  0  0  0  0  0  0  0  0  0
    8.9434    6.6335   21.6707 C   0  0  0  0  0  0  0  0  0  0  0  0
    9.5740    8.8782   20.6791 C   0  0  0  0  0  0  0  0  0  0  0  0
   12.4417    8.0370   20.9660 C   0  0  0  0  0  0  0  0  0  0  0  0
    8.5249    8.8040   21.2920 C   0  0  0  0  0  0  0  0  0  0  0  0
    8.2564    3.9011   20.4246 C   0  0  0  0  0  0  0  0  0  0  0  0
   11.1407   10.7426   18.7418 C   0  0  0  0  0  0  0  0  0  0  0  0
   13.4758    6.9276   19.9238 C   0  0  0  0  0  0  0  0  0  0  0  0
    9.3166    6.7516   21.3492 C   0  0  0  0  0  0  0  0  0  0  0  0
   10.8750   10.1012   20.9361 C   0  0  0  0  0  0  0  0  0  0  0  0
    9.0333    5.5510   21.1335 C   0  0  0  0  0  0  0  0  0  0  0  0
    9.1516    3.7953   20.6825 C   0  0  0  0  0  0  0  0  0  0  0  0
   12.0109   12.8197   18.5898 C   0  0  0  0  0  0  0  0  0  0  0  0
   10.5659    8.4991   20.9292 C   0  0  0  0  0  0  0  0  0  0  0  0
   11.9966    6.0073   20.4401 C   0  0  0  0  0  0  0  0  0  0  0  0
    8.6223   10.6003   20.2141 C   0  0  0  0  0  0  0  0  0  0  0  0
   11.3771    9.4865   20.2239 C   0  0  0  0  0  0  0  0  0  0  0  0
    9.2260   10.7413   21.7177 O   0  0  0  0  0  0  0  0  0  0  0  0
  1 25  1  0
  3 20  1  0
  4 15  4  0
  7 23  4  0
  8 21  4  0
 10 17  4  0
 11 13  1  0
 14 20  1  0
M  END
$$$$

 Created by Python create_sdf_string function

 26 10  0  0  0  0  0  0  0  0999 V2000
   12.4703    7.6685   20.4189 C   0  0  0  0  0  0  0  0  0  0  0  0
   11.1412   12.4007   19.0351 C   0  0  0  0  0  0  0  0  0  0  0  0
    8.9430    4.6375   21.7899 C   0  0  0  0  0  0  0  0  0  0  0  0
   11.6520   11.0836   19.5240 C   0  0  0  0  0  0  0  0  0  0  0  0
   12.6790   12.6343   19.4915 C   0  0  0  0  0  0  0  0  0  0  0  0
   11.4512    9.3676   21.5513 C   0  0  0  0  0  0  0  0  0  0  0  0
   10.3351    6.0619   20.5467 C   0  0  0  0  0  0  0  0  0  0  0  0
   12.7651   13.3840   17.9677 C   0  0  0  0  0  0  0  0  0  0  0  0
    8.9835    3.9920   22.0315 C   0  0  0  0  0  0  0  0  0  0  0  0
    9.1658    5.6131   22.5775 C   0  0  0  0  0  0  0  0  0  0  0  0
    9.0968    9.0322   20.8165 C   0  0  0  0  0  0  0  0  0  0  0  0
   13.3839    7.9591   21.0844 O   0  0  0  0  0  0  0  0  0  0  0  0
    8.2975    8.7862   21.3441 C   0  0  0  0  0  0  0  0  0  0  0  0
    8.3270    3.2397   20.9014 C   0  0  0  0  0  0  0  0  0  0  0  0
   11.2559   12.2507   17.8777 C   0  0  0  0  0  0  0  0  0  0  0  0
   10.7053    6.3663   20.6627 C   0  0  0  0  0  0  0  0  0  0  0  0
   10.6039    7.4121   20.8167 C   0  0  0  0  0  0  0  0  0  0  0  0
   10.2987   11.2978   20.4427 C   0  0  0  0  0  0  0  0  0  0  0  0
    8.3165    5.4555   21.2140 C   0  0  0  0  0  0  0  0  0  0  0  0
    9.6071    4.0192   20.3623 C   0  0  0  0  0  0  0  0  0  0  0  0
   12.5195   12.6241   17.9865 C   0  0  0  0  0  0  0  0  0  0  0  0
    9.5188    8.0763   20.9323 C   0  0  0  0  0  0  0  0  0  0  0  0
   12.6353    6.4673   20.1832 C   0  0  0  0  0  0  0  0  0  0  0  0
    9.9126   11.0485   20.6681 C   0  0  0  0  0  0  0  0  0  0  0  0
   10.8881    9.3690   20.5142 C   0  0  0  0  0  0  0  0  0  0  0  0
    9.7263   11.0636   22.0324 O   0  0  0  0  0  0  0  0  0  0  0  0
  1 12  1  0
  1 23  1  0
  2 15  4  0
  3  9  1  0
  6 25  1  0
  7 16  4  0
  8 21  1  0
 11 22  4  0
 18 24  1  0
 24 26  1  0
M  END
$$$$

 Created by Python create_sdf_string function

 26  9  0  0  0  0  0  0  0  0999 V2000
   12.2322    7.8620   20.2161 C   0  0  0  0  0  0  0  0  0  0  0  0
   11.1930   11.4378   18.8134 C   0  0  0  0  0  0  0  0  0  0  0  0
    9.5122    3.7080   21.1525 C   0  0  0  0  0  0  0  0  0  0  0  0
   11.6488   11.4724   18.8248 C   0  0  0  0  0  0  0  0  0  0  0  0
   11.8174   13.6730   20.0768 C   0  0  0  0  0  0  0  0  0  0  0  0
   11.1937    9.6852   20.1859 C   0  0  0  0  0  0  0  0  0  0  0  0
   10.9260    5.4914   20.5680 C   0  0  0  0  0  0  0  0  0  0  0  0
   12.5718   13.5226   19.7167 C   0  0  0  0  0  0  0  0  0  0  0  0
    8.4838    3.6480   21.7050 C   0  0  0  0  0  0  0  0  0  0  0  0
   10.0331    3.9383   21.9148 C   0  0  0  0  0  0  0  0  0  0  0  0
    8.5617    9.4504   20.8451 C   0  0  0  0  0  0  0  0  0  0  0  0
   12.8405    7.6084   20.4715 C   0  0  0  0  0  0  0  0  0  0  0  0
    8.5571    9.3625   21.5074 C   0  0  0  0  0  0  0  0  0  0  0  0
    7.8475    3.7773   21.6504 C   0  0  0  0  0  0  0  0  0  0  0  0
   11.2699   12.2618   18.6224 C   0  0  0  0  0  0  0  0  0  0  0  0
   10.3511    7.2428   20.4546 C   0  0  0  0  0  0  0  0  0  0  0  0
   11.5105    6.5876   20.4079 C   0  0  0  0  0  0  0  0  0  0  0  0
   10.1214   11.8629   19.1642 C   0  0  0  0  0  0  0  0  0  0  0  0
    8.8078    5.2193   20.9563 C   0  0  0  0  0  0  0  0  0  0  0  0
   10.7296    4.3710   20.4456 C   0  0  0  0  0  0  0  0  0  0  0  0
   12.4334   13.5541   18.2521 C   0  0  0  0  0  0  0  0  0  0  0  0
    9.9919    7.8864   21.5609 C   0  0  0  0  0  0  0  0  0  0  0  0
   12.7213    7.0824   18.8574 C   0  0  0  0  0  0  0  0  0  0  0  0
   10.7692   11.5618   20.5112 C   0  0  0  0  0  0  0  0  0  0  0  0
    9.7935    9.4811   20.0844 C   0  0  0  0  0  0  0  0  0  0  0  0
    8.9659    9.9746   22.3685 O   0  0  0  0  0  0  0  0  0  0  0  0
  1 12  1  0
  2 15  1  0
  3 10  4  0
  4 15  1  0
  5  8  1  0
  9 14  4  0
 11 13  1  0
 13 26  2  0
 15 18  1  0
M  END
$$$$

 Created by Python create_sdf_string function

 26 10  0  0  0  0  0  0  0  0999 V2000
   12.7989    8.6547   19.3937 C   0  0  0  0  0  0  0  0  0  0  0  0
   11.3115   11.4551   19.1418 C   0  0  0  0  0  0  0  0  0  0  0  0
    9.0649    3.5936   21.4448 C   0  0  0  0  0  0  0  0  0  0  0  0
   10.7553   10.6995   18.2841 C   0  0  0  0  0  0  0  0  0  0  0  0
   11.4034   12.9868   20.3613 C   0  0  0  0  0  0  0  0  0  0  0  0
   11.5290    9.3400   20.3339 C   0  0  0  0  0  0  0  0  0  0  0  0
   10.8252    6.0344   19.7085 C   0  0  0  0  0  0  0  0  0  0  0  0
   11.9620   13.6551   18.6311 C   0  0  0  0  0  0  0  0  0  0  0  0
    9.3956    3.7867   20.6915 C   0  0  0  0  0  0  0  0  0  0  0  0
    8.3709    5.0646   21.4514 C   0  0  0  0  0  0  0  0  0  0  0  0
   10.7389    9.4117   21.0043 C   0  0  0  0  0  0  0  0  0  0  0  0
   12.2531    7.3097   20.1610 C   0  0  0  0  0  0  0  0  0  0  0  0
    9.3462    7.7748   20.6421 C   0  0  0  0  0  0  0  0  0  0  0  0
    8.7651    3.9496   21.3918 C   0  0  0  0  0  0  0  0  0  0  0  0
   11.8458   11.9604   18.8274 C   0  0  0  0  0  0  0  0  0  0  0  0
   10.5040    7.5018   19.8551 C   0  0  0  0  0  0  0  0  0  0  0  0
   12.1991    6.5020   18.9660 C   0  0  0  0  0  0  0  0  0  0  0  0
   11.5257   13.0579   19.8529 C   0  0  0  0  0  0  0  0  0  0  0  0
    9.0928    5.3255   20.8759 C   0  0  0  0  0  0  0  0  0  0  0  0
   10.3021    5.1251   19.8550 C   0  0  0  0  0  0  0  0  0  0  0  0
   11.8549   13.3752   20.0408 O   0  0  0  0  0  0  0  0  0  0  0  0
   10.3183    9.8515   20.8096 N   0  0  0  0  0  0  0  0  0  0  0  0
   12.7526    5.9889   18.0880 O   0  0  0  0  0  0  0  0  0  0  0  0
   10.3906   10.7843   20.5645 C   0  0  0  0  0  0  0  0  0  0  0  0
    9.0141    9.4065   20.3154 C   0  0  0  0  0  0  0  0  0  0  0  0
    8.7779   10.6046   21.8717 O   0  0  0  0  0  0  0  0  0  0  0  0
  2 15  1  0
  3 14  1  0
  5 18  1  0
  7 17  1  0
  7 20  4  0
 10 19  4  0
 11 22  4  0
 17 23  1  0
 18 21  1  0
 22 24  4  0
M  END
$$$$

 Created by Python create_sdf_string function

 26 10  0  0  0  0  0  0  0  0999 V2000
   13.3505    8.7054   19.1121 C   0  0  0  0  0  0  0  0  0  0  0  0
   12.1550   12.2457   19.9177 C   0  0  0  0  0  0  0  0  0  0  0  0
    9.1853    3.5081   20.6051 C   0  0  0  0  0  0  0  0  0  0  0  0
   10.3494    9.8247   18.2948 O   0  0  0  0  0  0  0  0  0  0  0  0
   11.9297   12.5132   19.4952 C   0  0  0  0  0  0  0  0  0  0  0  0
   11.7255    9.4318   20.0418 C   0  0  0  0  0  0  0  0  0  0  0  0
    9.8890    6.3997   20.3310 C   0  0  0  0  0  0  0  0  0  0  0  0
   11.6780   13.7429   18.9918 C   0  0  0  0  0  0  0  0  0  0  0  0
    8.3086    3.9412   20.9840 C   0  0  0  0  0  0  0  0  0  0  0  0
    9.3211    4.7826   21.8113 C   0  0  0  0  0  0  0  0  0  0  0  0
   11.0243   11.2383   19.4182 C   0  0  0  0  0  0  0  0  0  0  0  0
   12.5015    6.3225   20.0112 C   0  0  0  0  0  0  0  0  0  0  0  0
    9.6613    8.2650   20.3565 C   0  0  0  0  0  0  0  0  0  0  0  0
   10.0859    4.4488   21.6485 C   0  0  0  0  0  0  0  0  0  0  0  0
   12.7801   10.4898   19.6493 C   0  0  0  0  0  0  0  0  0  0  0  0
   10.5539    7.6348   19.7555 C   0  0  0  0  0  0  0  0  0  0  0  0
   12.1668    7.7159   19.2271 C   0  0  0  0  0  0  0  0  0  0  0  0
   11.6239   13.8330   18.4998 C   0  0  0  0  0  0  0  0  0  0  0  0
    9.1701    4.8068   20.6089 C   0  0  0  0  0  0  0  0  0  0  0  0
    8.9433    5.6109   21.3357 C   0  0  0  0  0  0  0  0  0  0  0  0
   12.6559   11.9177   20.8411 C   0  0  0  0  0  0  0  0  0  0  0  0
   10.8083    9.9621   20.5332 C   0  0  0  0  0  0  0  0  0  0  0  0
   11.9253    5.5393   19.1499 O   0  0  0  0  0  0  0  0  0  0  0  0
   10.2053   10.0758   20.3134 C   0  0  0  0  0  0  0  0  0  0  0  0
    8.8316    9.7229   21.2784 O   0  0  0  0  0  0  0  0  0  0  0  0
    8.1541    9.4812   21.5053 O   0  0  0  0  0  0  0  0  0  0  0  0
  2  5  1  0
  2 21  1  0
  3  9  4  0
  5 11  1  0
  8 18  1  0
 10 14  4  0
 10 20  4  0
 13 16  4  0
 22 24  1  0
 25 26  1  0
M  END
$$$$

 Created by Python create_sdf_string function

 26 10  0  0  0  0  0  0  0  0999 V2000
   12.7609    8.8731   19.2505 C   0  0  0  0  0  0  0  0  0  0  0  0
   11.4219   12.3311   19.3082 C   0  0  0  0  0  0  0  0  0  0  0  0
    9.6127    3.4218   20.5207 C   0  0  0  0  0  0  0  0  0  0  0  0
   10.3148   10.5607   18.1972 C   0  0  0  0  0  0  0  0  0  0  0  0
   12.9065   13.1984   18.1598 O   0  0  0  0  0  0  0  0  0  0  0  0
   10.3410    9.9752   19.8044 C   0  0  0  0  0  0  0  0  0  0  0  0
    9.1328    6.6586   21.3464 C   0  0  0  0  0  0  0  0  0  0  0  0
   12.5446   13.8441   19.1863 C   0  0  0  0  0  0  0  0  0  0  0  0
    8.1714    3.5092   21.0410 C   0  0  0  0  0  0  0  0  0  0  0  0
    8.2488    5.3304   21.6468 C   0  0  0  0  0  0  0  0  0  0  0  0
   11.6021   11.2690   18.9551 C   0  0  0  0  0  0  0  0  0  0  0  0
   11.9776    5.9502   19.7726 C   0  0  0  0  0  0  0  0  0  0  0  0
    9.6083    8.5540   20.0685 N   0  0  0  0  0  0  0  0  0  0  0  0
    9.2272    5.3012   21.3136 C   0  0  0  0  0  0  0  0  0  0  0  0
   12.8681   10.3560   19.0644 C   0  0  0  0  0  0  0  0  0  0  0  0
   10.9779    6.8059   20.4334 C   0  0  0  0  0  0  0  0  0  0  0  0
   12.9728    7.6715   18.6795 C   0  0  0  0  0  0  0  0  0  0  0  0
   11.8825   13.9826   19.3973 C   0  0  0  0  0  0  0  0  0  0  0  0
    9.7834    3.9567   20.5907 C   0  0  0  0  0  0  0  0  0  0  0  0
   10.4706    5.5667   21.0950 C   0  0  0  0  0  0  0  0  0  0  0  0
   12.8535   11.8789   19.5195 C   0  0  0  0  0  0  0  0  0  0  0  0
   11.5788    8.7610   20.1917 C   0  0  0  0  0  0  0  0  0  0  0  0
   12.7130    6.2405   18.6754 C   0  0  0  0  0  0  0  0  0  0  0  0
   10.0972   10.9022   20.0451 C   0  0  0  0  0  0  0  0  0  0  0  0
    8.9264   10.4650   21.2514 O   0  0  0  0  0  0  0  0  0  0  0  0
    8.4194    8.7565   20.7011 O   0  0  0  0  0  0  0  0  0  0  0  0
  1 17  4  0
  1 22  4  0
  2 11  1  0
  3  9  4  0
  3 19  4  0
  6 24  1  0
  8 18  1  0
 10 14  4  0
 12 23  4  0
 14 20  4  0
M  END
$$$$

 Created by Python create_sdf_string function

 26 11  0  0  0  0  0  0  0  0999 V2000
   12.3204    8.1903   19.8352 C   0  0  0  0  0  0  0  0  0  0  0  0
   10.3818   12.3713   20.4903 O   0  0  0  0  0  0  0  0  0  0  0  0
    9.3602    3.3812   20.2580 O   0  0  0  0  0  0  0  0  0  0  0  0
   10.7144   12.0265   18.6549 O   0  0  0  0  0  0  0  0  0  0  0  0
   12.5784   12.7690   17.5506 O   0  0  0  0  0  0  0  0  0  0  0  0
   10.8899    9.4624   21.7308 C   0  0  0  0  0  0  0  0  0  0  0  0
    9.3119    7.0025   22.0136 C   0  0  0  0  0  0  0  0  0  0  0  0
   12.4738   13.4111   18.9523 C   0  0  0  0  0  0  0  0  0  0  0  0
    7.7173    3.7618   21.1273 C   0  0  0  0  0  0  0  0  0  0  0  0
    7.4576    5.4873   21.4768 C   0  0  0  0  0  0  0  0  0  0  0  0
   11.2245   12.4819   18.8540 C   0  0  0  0  0  0  0  0  0  0  0  0
   11.8149    5.4231   20.2048 C   0  0  0  0  0  0  0  0  0  0  0  0
    9.0139    8.4774   20.9742 O   0  0  0  0  0  0  0  0  0  0  0  0
    9.1457    5.0579   21.2729 C   0  0  0  0  0  0  0  0  0  0  0  0
   11.9613   10.9712   19.3623 C   0  0  0  0  0  0  0  0  0  0  0  0
   11.4522    7.4908   20.4075 C   0  0  0  0  0  0  0  0  0  0  0  0
   12.9516    6.8564   18.6595 C   0  0  0  0  0  0  0  0  0  0  0  0
   11.8854   13.5738   19.0689 C   0  0  0  0  0  0  0  0  0  0  0  0
    8.8407    4.3651   20.9149 C   0  0  0  0  0  0  0  0  0  0  0  0
   11.2811    6.2197   20.7485 C   0  0  0  0  0  0  0  0  0  0  0  0
   12.2701   11.4514   19.9722 N   0  0  0  0  0  0  0  0  0  0  0  0
   10.8150    9.3363   20.9276 C   0  0  0  0  0  0  0  0  0  0  0  0
   12.6786    6.0580   19.3472 C   0  0  0  0  0  0  0  0  0  0  0  0
   10.8907   10.8471   20.6580 C   0  0  0  0  0  0  0  0  0  0  0  0
    9.1684    9.8224   21.5077 C   0  0  0  0  0  0  0  0  0  0  0  0
    9.6972    5.8850   21.1433 C   0  0  0  0  0  0  0  0  0  0  0  0
  1 16  4  0
  1 17  4  0
  3 19  1  0
  6 22  1  0
  8 18  1  0
 12 20  4  0
 12 23  4  0
 13 25  1  0
 16 20  4  0
 17 23  4  0
 22 24  1  0
M  END
$$$$

 Created by Python create_sdf_string function

 26 20  0  0  0  0  0  0  0  0999 V2000
   12.7014    8.4285   21.4587 C   0  0  0  0  0  0  0  0  0  0  0  0
   11.1163   11.8767   21.3064 O   0  0  0  0  0  0  0  0  0  0  0  0
    7.9873    4.4209   21.6717 C   0  0  0  0  0  0  0  0  0  0  0  0
   11.6678   11.4936   17.6017 O   0  0  0  0  0  0  0  0  0  0  0  0
   11.2161   13.3532   17.9621 O   0  0  0  0  0  0  0  0  0  0  0  0
   11.8711    7.9438   22.5125 O   0  0  0  0  0  0  0  0  0  0  0  0
    9.4334    6.0446   21.7196 C   0  0  0  0  0  0  0  0  0  0  0  0
   11.4453   12.3336   17.9022 P   0  0  0  0  0  0  0  0  0  0  0  0
    7.4931    3.8607   21.6711 C   0  0  0  0  0  0  0  0  0  0  0  0
    6.9852    5.6275   21.3697 C   0  0  0  0  0  0  0  0  0  0  0  0
   11.0970   12.7927   20.2593 O   0  0  0  0  0  0  0  0  0  0  0  0
   13.4525    7.2949   21.1052 C   0  0  0  0  0  0  0  0  0  0  0  0
    8.4540    7.8217   20.6919 C   0  0  0  0  0  0  0  0  0  0  0  0
    9.5821    4.9752   21.9886 C   0  0  0  0  0  0  0  0  0  0  0  0
   11.7124   11.3739   19.1943 O   0  0  0  0  0  0  0  0  0  0  0  0
   11.1987    6.6264   22.0044 C   0  0  0  0  0  0  0  0  0  0  0  0
   12.8091    7.1856   20.0314 C   0  0  0  0  0  0  0  0  0  0  0  0
   11.8180   11.7857   18.7601 O   0  0  0  0  0  0  0  0  0  0  0  0
    7.8755    5.9397   21.3237 C   0  0  0  0  0  0  0  0  0  0  0  0
   11.3549    6.8436   21.2387 C   0  0  0  0  0  0  0  0  0  0  0  0
   13.4802    9.6382   20.5981 O   0  0  0  0  0  0  0  0  0  0  0  0
   12.1561    9.9158   20.5553 O   0  0  0  0  0  0  0  0  0  0  0  0
   12.8664    6.1068   20.0863 O   0  0  0  0  0  0  0  0  0  0  0  0
   11.1273   11.0087   21.0534 P   0  0  0  0  0  0  0  0  0  0  0  0
    9.4999    9.4213   20.9651 C   0  0  0  0  0  0  0  0  0  0  0  0
    9.2255    6.9999   21.6209 C   0  0  0  0  0  0  0  0  0  0  0  0
  1  6  1  0
  1 12  1  0
  1 21  1  0
  2 24  2  0
  3  9  4  0
  3 14  4  0
  3 19  4  0
  4  8  1  0
  5  8  1  0
  6 16  1  0
  7 14  4  0
  7 26  4  0
  8 15  1  0
  8 18  1  0
 10 19  4  0
 12 17  1  0
 15 18  1  0
 16 20  1  0
 17 20  1  0
 17 23  1  0
M  END
$$$$

 Created by Python create_sdf_string function

 26 21  0  0  0  0  0  0  0  0999 V2000
   12.2938    7.9361   21.2977 C   0  0  0  0  0  0  0  0  0  0  0  0
   11.1592   11.0964   22.6636 O   0  0  0  0  0  0  0  0  0  0  0  0
    7.9866    4.8221   21.5482 C   0  0  0  0  0  0  0  0  0  0  0  0
   13.0329   12.2320   17.9139 O   0  0  0  0  0  0  0  0  0  0  0  0
   11.7351   10.2438   17.7791 O   0  0  0  0  0  0  0  0  0  0  0  0
   12.4789    8.9593   22.4845 O   0  0  0  0  0  0  0  0  0  0  0  0
    9.1307    5.8051   21.8527 C   0  0  0  0  0  0  0  0  0  0  0  0
   11.8414   11.5933   18.4197 P   0  0  0  0  0  0  0  0  0  0  0  0
    7.1573    3.7811   21.2646 C   0  0  0  0  0  0  0  0  0  0  0  0
    6.3279    5.8740   21.8349 O   0  0  0  0  0  0  0  0  0  0  0  0
   10.3674   12.1286   21.4447 O   0  0  0  0  0  0  0  0  0  0  0  0
   13.7860    7.3842   20.4916 C   0  0  0  0  0  0  0  0  0  0  0  0
    8.7516    7.3456   21.8924 C   0  0  0  0  0  0  0  0  0  0  0  0
    9.5544    4.6344   21.7438 N   0  0  0  0  0  0  0  0  0  0  0  0
   10.6673   12.3615   18.4591 O   0  0  0  0  0  0  0  0  0  0  0  0
   11.0813    6.0149   21.9047 C   0  0  0  0  0  0  0  0  0  0  0  0
   12.6817    6.5371   20.1966 C   0  0  0  0  0  0  0  0  0  0  0  0
   12.0608   11.1713   19.9037 O   0  0  0  0  0  0  0  0  0  0  0  0
    7.1730    5.6888   21.7408 C   0  0  0  0  0  0  0  0  0  0  0  0
   11.5208    6.5272   21.3728 C   0  0  0  0  0  0  0  0  0  0  0  0
   12.4939    9.0680   21.7859 C   0  0  0  0  0  0  0  0  0  0  0  0
   13.0868    9.6688   20.9727 C   0  0  0  0  0  0  0  0  0  0  0  0
   12.7122    6.1760   19.3868 O   0  0  0  0  0  0  0  0  0  0  0  0
   11.3766   10.4493   21.1483 P   0  0  0  0  0  0  0  0  0  0  0  0
   10.0125    9.7401   20.9987 O   0  0  0  0  0  0  0  0  0  0  0  0
    9.4198    6.3264   22.0338 C   0  0  0  0  0  0  0  0  0  0  0  0
  1  6  1  0
  1 12  1  0
  1 20  1  0
  1 21  1  0
  3 14  4  0
  3 19  4  0
  4  8  1  0
  5  8  1  0
  6 21  1  0
  7 26  4  0
  8 15  2  0
  8 18  1  0
 10 19  2  0
 13 26  4  0
 14 16  4  0
 16 20  4  0
 17 20  1  0
 17 23  1  0
 18 24  1  0
 21 22  1  0
 22 24  1  0
M  END
$$$$

 Created by Python create_sdf_string function

 26 20  0  0  0  0  0  0  0  0999 V2000
   12.3970    7.7914   21.1960 C   0  0  0  0  0  0  0  0  0  0  0  0
   11.4670   10.7061   21.2824 O   0  0  0  0  0  0  0  0  0  0  0  0
    7.6025    4.5927   21.7012 C   0  0  0  0  0  0  0  0  0  0  0  0
   12.3349   10.5823   18.2773 O   0  0  0  0  0  0  0  0  0  0  0  0
   12.4076   10.9465   17.7891 O   0  0  0  0  0  0  0  0  0  0  0  0
   12.9885    8.2578   22.5712 O   0  0  0  0  0  0  0  0  0  0  0  0
    8.4821    6.3167   22.6104 C   0  0  0  0  0  0  0  0  0  0  0  0
   12.2227   11.2480   18.8768 O   0  0  0  0  0  0  0  0  0  0  0  0
    7.4883    4.3286   21.5956 N   0  0  0  0  0  0  0  0  0  0  0  0
    6.0513    6.7779   22.4863 O   0  0  0  0  0  0  0  0  0  0  0  0
   10.4555   11.9591   20.8493 O   0  0  0  0  0  0  0  0  0  0  0  0
   13.8297    6.6112   20.5816 O   0  0  0  0  0  0  0  0  0  0  0  0
    8.6497    7.7032   22.8663 N   0  0  0  0  0  0  0  0  0  0  0  0
    9.0529    4.4438   21.4597 N   0  0  0  0  0  0  0  0  0  0  0  0
   10.7268   12.6976   18.3955 O   0  0  0  0  0  0  0  0  0  0  0  0
   11.1884    6.7620   21.8556 N   0  0  0  0  0  0  0  0  0  0  0  0
   13.0251    6.5123   19.4926 C   0  0  0  0  0  0  0  0  0  0  0  0
   11.1748   11.6226   19.6378 P   0  0  0  0  0  0  0  0  0  0  0  0
    7.2973    5.9494   22.4870 C   0  0  0  0  0  0  0  0  0  0  0  0
   10.7439    6.8259   22.1937 N   0  0  0  0  0  0  0  0  0  0  0  0
   13.1358    8.4992   22.5645 C   0  0  0  0  0  0  0  0  0  0  0  0
   13.0495    8.4172   19.9484 C   0  0  0  0  0  0  0  0  0  0  0  0
   12.0178    6.0817   19.7374 C   0  0  0  0  0  0  0  0  0  0  0  0
   12.3038    9.7375   20.7684 O   0  0  0  0  0  0  0  0  0  0  0  0
    9.8822    8.0165   22.5546 C   0  0  0  0  0  0  0  0  0  0  0  0
    9.6837    5.9526   22.1809 C   0  0  0  0  0  0  0  0  0  0  0  0
  1 22  1  0
  2 24  1  0
  3  9  4  0
  3 14  4  0
  4  5  2  0
  4  8  1  0
  5  8  1  0
  6 21  1  0
  7 13  4  0
  7 19  4  0
  7 26  4  0
 10 19  2  0
 11 18  1  0
 12 17  1  0
 13 25  4  0
 15 18  1  0
 16 20  4  0
 17 23  1  0
 20 25  4  0
 20 26  4  0
M  END
$$$$

 Created by Python create_sdf_string function

 26 24  0  0  0  0  0  0  0  0999 V2000
   13.5445    7.4338   20.5745 C   0  0  0  0  0  0  0  0  0  0  0  0
   11.7777   10.3564   21.1629 C   0  0  0  0  0  0  0  0  0  0  0  0
    7.7395    4.6633   21.9178 C   0  0  0  0  0  0  0  0  0  0  0  0
   12.3450   11.1204   17.6353 O   0  0  0  0  0  0  0  0  0  0  0  0
   12.7757   11.3575   18.0773 O   0  0  0  0  0  0  0  0  0  0  0  0
   13.2162    8.0063   22.6639 O   0  0  0  0  0  0  0  0  0  0  0  0
    8.2820    6.6111   22.4681 C   0  0  0  0  0  0  0  0  0  0  0  0
   12.7941   10.4618   18.6182 O   0  0  0  0  0  0  0  0  0  0  0  0
    7.4404    4.8345   21.9888 N   0  0  0  0  0  0  0  0  0  0  0  0
    5.6552    6.6872   22.7656 N   0  0  0  0  0  0  0  0  0  0  0  0
   11.7484   11.7024   20.1243 O   0  0  0  0  0  0  0  0  0  0  0  0
   14.2630    6.8609   20.3018 O   0  0  0  0  0  0  0  0  0  0  0  0
    8.2507    7.8558   22.7636 N   0  0  0  0  0  0  0  0  0  0  0  0
    9.4365    4.9611   21.6163 N   0  0  0  0  0  0  0  0  0  0  0  0
   10.8625   12.5200   18.4629 O   0  0  0  0  0  0  0  0  0  0  0  0
   10.3192    7.5927   22.1651 C   0  0  0  0  0  0  0  0  0  0  0  0
   12.6063    6.7392   19.4563 C   0  0  0  0  0  0  0  0  0  0  0  0
   11.7361   11.7549   18.8970 P   0  0  0  0  0  0  0  0  0  0  0  0
    6.8246    6.2464   22.4969 C   0  0  0  0  0  0  0  0  0  0  0  0
   10.9169    7.2201   21.7874 N   0  0  0  0  0  0  0  0  0  0  0  0
   12.7716    8.3492   21.9080 C   0  0  0  0  0  0  0  0  0  0  0  0
   13.3655    8.5337   18.9787 C   0  0  0  0  0  0  0  0  0  0  0  0
   12.0232    6.8123   19.8242 O   0  0  0  0  0  0  0  0  0  0  0  0
   12.1359    8.8639   20.9280 C   0  0  0  0  0  0  0  0  0  0  0  0
    9.4453    8.3997   22.3235 C   0  0  0  0  0  0  0  0  0  0  0  0
    9.4968    6.0113   21.9539 C   0  0  0  0  0  0  0  0  0  0  0  0
  1 12  1  0
  1 21  1  0
  2 11  1  0
  2 24  1  0
  3  9  4  0
  3 14  4  0
  5  8  1  0
  5 18  1  0
  6 21  1  0
  7 13  4  0
  7 19  4  0
  7 26  4  0
  8 22  1  0
  9 19  4  0
 10 19  1  0
 11 18  1  0
 13 25  4  0
 14 26  4  0
 15 18  1  0
 16 20  4  0
 16 25  4  0
 17 23  1  0
 20 26  4  0
 21 24  1  0
M  END
$$$$

 Created by Python create_sdf_string function

 26 21  0  0  0  0  0  0  0  0999 V2000
   13.2878    8.1335   21.2155 C   0  0  0  0  0  0  0  0  0  0  0  0
   10.9503    9.7776   20.1421 O   0  0  0  0  0  0  0  0  0  0  0  0
    7.9852    4.7171   21.6295 N   0  0  0  0  0  0  0  0  0  0  0  0
   12.7387   12.3884   17.2807 O   0  0  0  0  0  0  0  0  0  0  0  0
   12.3840   10.4317   17.9151 O   0  0  0  0  0  0  0  0  0  0  0  0
   13.9540    7.3486   21.1010 C   0  0  0  0  0  0  0  0  0  0  0  0
    8.2429    6.8140   22.5850 C   0  0  0  0  0  0  0  0  0  0  0  0
   12.9310    8.7773   18.3439 C   0  0  0  0  0  0  0  0  0  0  0  0
    8.0932    5.4865   22.0277 N   0  0  0  0  0  0  0  0  0  0  0  0
    6.0282    5.9411   22.2327 N   0  0  0  0  0  0  0  0  0  0  0  0
   12.3643   12.0141   19.7357 O   0  0  0  0  0  0  0  0  0  0  0  0
   14.5284    6.5768   21.5523 O   0  0  0  0  0  0  0  0  0  0  0  0
    7.6372    7.7795   22.8029 N   0  0  0  0  0  0  0  0  0  0  0  0
    9.1208    4.7280   21.5988 N   0  0  0  0  0  0  0  0  0  0  0  0
   10.6892   12.6066   18.3412 O   0  0  0  0  0  0  0  0  0  0  0  0
   10.5784    7.2583   22.2355 C   0  0  0  0  0  0  0  0  0  0  0  0
   13.0049    7.5129   19.4449 C   0  0  0  0  0  0  0  0  0  0  0  0
   11.8586   11.9097   18.3262 P   0  0  0  0  0  0  0  0  0  0  0  0
    7.0210    6.3790   22.4054 C   0  0  0  0  0  0  0  0  0  0  0  0
   10.2952    7.2403   22.2213 N   0  0  0  0  0  0  0  0  0  0  0  0
   12.3511    7.6994   21.9730 O   0  0  0  0  0  0  0  0  0  0  0  0
   12.9692    8.3708   19.0469 C   0  0  0  0  0  0  0  0  0  0  0  0
   13.3567    6.2466   19.2761 O   0  0  0  0  0  0  0  0  0  0  0  0
   11.8552    8.9045   20.4873 C   0  0  0  0  0  0  0  0  0  0  0  0
    9.2693    8.7313   22.3227 C   0  0  0  0  0  0  0  0  0  0  0  0
    9.8393    7.2479   22.3106 C   0  0  0  0  0  0  0  0  0  0  0  0
  1  6  1  0
  1 21  1  0
  2 24  1  0
  3 14  4  0
  4 18  1  0
  5 18  1  0
  6 12  1  0
  7 13  4  0
  7 19  4  0
  8 17  1  0
  8 22  1  0
  9 14  4  0
 10 19  1  0
 11 18  1  0
 13 19  4  0
 13 25  4  0
 15 18  1  0
 16 20  4  0
 17 22  1  0
 17 23  1  0
 20 26  4  0
M  END
$$$$

 Created by Python create_sdf_string function

 26 17  0  0  0  0  0  0  0  0999 V2000
   13.6658    8.0578   20.8938 C   0  0  0  0  0  0  0  0  0  0  0  0
   11.4271    8.4991   20.5215 O   0  0  0  0  0  0  0  0  0  0  0  0
    7.9358    4.5227   21.4545 N   0  0  0  0  0  0  0  0  0  0  0  0
   12.3909   12.5649   18.1273 O   0  0  0  0  0  0  0  0  0  0  0  0
   12.0216   10.4272   17.5313 O   0  0  0  0  0  0  0  0  0  0  0  0
   13.7510    6.9467   21.1337 C   0  0  0  0  0  0  0  0  0  0  0  0
    7.7781    6.9608   22.4980 C   0  0  0  0  0  0  0  0  0  0  0  0
   12.8068    8.5288   18.9542 C   0  0  0  0  0  0  0  0  0  0  0  0
    9.7402    5.4674   22.1396 N   0  0  0  0  0  0  0  0  0  0  0  0
    5.7943    6.0330   22.3503 N   0  0  0  0  0  0  0  0  0  0  0  0
   12.9674   11.3884   18.9402 O   0  0  0  0  0  0  0  0  0  0  0  0
   14.6176    6.3325   21.3894 O   0  0  0  0  0  0  0  0  0  0  0  0
    7.3318    7.5668   22.7595 C   0  0  0  0  0  0  0  0  0  0  0  0
    8.7017    5.0676   21.7495 N   0  0  0  0  0  0  0  0  0  0  0  0
   10.8758   11.1248   18.8164 O   0  0  0  0  0  0  0  0  0  0  0  0
    9.0583    8.4515   22.8574 N   0  0  0  0  0  0  0  0  0  0  0  0
   13.2703    6.6032   19.5515 C   0  0  0  0  0  0  0  0  0  0  0  0
   12.7897   11.2630   18.7399 P   0  0  0  0  0  0  0  0  0  0  0  0
    7.0072    5.9461   22.0521 C   0  0  0  0  0  0  0  0  0  0  0  0
   10.6187    7.1528   22.0835 N   0  0  0  0  0  0  0  0  0  0  0  0
   12.9693    8.1067   22.1594 C   0  0  0  0  0  0  0  0  0  0  0  0
   12.8841    8.0569   18.9495 C   0  0  0  0  0  0  0  0  0  0  0  0
   14.1147    6.4210   18.8084 O   0  0  0  0  0  0  0  0  0  0  0  0
   11.6316    8.1418   21.9835 C   0  0  0  0  0  0  0  0  0  0  0  0
    7.8480    7.9351   22.8085 C   0  0  0  0  0  0  0  0  0  0  0  0
   10.0042    7.5647   22.3478 C   0  0  0  0  0  0  0  0  0  0  0  0
  1  6  1  0
  1 21  1  0
  2 24  1  0
  3 14  4  0
  5 18  1  0
  6 12  1  0
  6 17  1  0
  7 13  4  0
  7 19  4  0
  8 22  1  0
  9 14  4  0
 11 18  2  0
 16 26  4  0
 17 22  1  0
 17 23  1  0
 20 26  4  0
 21 24  1  0
M  END
$$$$

 Created by Python create_sdf_string function

 26 17  0  0  0  0  0  0  0  0999 V2000
   13.2536    9.0515   20.7503 C   0  0  0  0  0  0  0  0  0  0  0  0
   10.4737    8.7218   19.8175 C   0  0  0  0  0  0  0  0  0  0  0  0
    7.9286    5.2796   21.5354 C   0  0  0  0  0  0  0  0  0  0  0  0
   12.0982   12.1688   18.5511 C   0  0  0  0  0  0  0  0  0  0  0  0
   12.0225   11.1098   17.8992 C   0  0  0  0  0  0  0  0  0  0  0  0
   13.7294    5.9019   21.1897 C   0  0  0  0  0  0  0  0  0  0  0  0
    8.1700    7.5267   22.4086 C   0  0  0  0  0  0  0  0  0  0  0  0
   13.5472   10.3812   19.3674 C   0  0  0  0  0  0  0  0  0  0  0  0
   10.7564    5.5342   22.0868 C   0  0  0  0  0  0  0  0  0  0  0  0
    6.3151    6.0552   21.6175 C   0  0  0  0  0  0  0  0  0  0  0  0
   13.0147   11.1256   18.9506 C   0  0  0  0  0  0  0  0  0  0  0  0
   13.9225    6.0084   20.8051 C   0  0  0  0  0  0  0  0  0  0  0  0
    6.9198    7.5690   22.0860 C   0  0  0  0  0  0  0  0  0  0  0  0
    8.4210    4.4438   21.5988 C   0  0  0  0  0  0  0  0  0  0  0  0
   11.2393   10.3067   18.8532 C   0  0  0  0  0  0  0  0  0  0  0  0
    9.5758    8.3438   22.4459 C   0  0  0  0  0  0  0  0  0  0  0  0
   13.5902    7.3562   19.7668 C   0  0  0  0  0  0  0  0  0  0  0  0
   12.3400    9.7915   18.7042 C   0  0  0  0  0  0  0  0  0  0  0  0
    6.4628    6.5737   21.7959 N   0  0  0  0  0  0  0  0  0  0  0  0
    9.2311    6.4038   22.3242 C   0  0  0  0  0  0  0  0  0  0  0  0
   12.1994    7.4127   21.7168 C   0  0  0  0  0  0  0  0  0  0  0  0
   12.9105    8.6561   19.8170 N   0  0  0  0  0  0  0  0  0  0  0  0
   14.5550    6.9463   19.1095 O   0  0  0  0  0  0  0  0  0  0  0  0
   10.8857    8.9366   20.9216 C   0  0  0  0  0  0  0  0  0  0  0  0
    9.6392    9.2873   22.4635 C   0  0  0  0  0  0  0  0  0  0  0  0
    9.9924    7.4182   22.2490 C   0  0  0  0  0  0  0  0  0  0  0  0
  1 22  1  0
  2 24  1  0
  3 14  4  0
  4  5  1  0
  5 18  1  0
  6 12  1  0
  7 13  4  0
  7 20  4  0
  8 11  1  0
 10 19  4  0
 12 17  1  0
 16 25  4  0
 16 26  4  0
 17 22  1  0
 17 23  1  0
 18 22  1  0
 20 26  4  0
M  END
$$$$

 Created by Python create_sdf_string function

 26 22  0  0  0  0  0  0  0  0999 V2000
   13.3556    7.7213   20.0635 C   0  0  0  0  0  0  0  0  0  0  0  0
   11.1767    8.6246   20.0546 C   0  0  0  0  0  0  0  0  0  0  0  0
    7.4175    5.3473   21.9420 C   0  0  0  0  0  0  0  0  0  0  0  0
   12.2194   12.2592   19.0956 C   0  0  0  0  0  0  0  0  0  0  0  0
   11.8824   11.0911   18.3609 C   0  0  0  0  0  0  0  0  0  0  0  0
   13.4682    6.0409   20.4475 C   0  0  0  0  0  0  0  0  0  0  0  0
    8.1571    6.3926   22.4424 C   0  0  0  0  0  0  0  0  0  0  0  0
   13.3779    9.9864   19.2209 C   0  0  0  0  0  0  0  0  0  0  0  0
   10.6409    6.4733   22.2236 C   0  0  0  0  0  0  0  0  0  0  0  0
    5.9564    6.9558   21.4584 C   0  0  0  0  0  0  0  0  0  0  0  0
   13.1609   11.9616   18.9702 C   0  0  0  0  0  0  0  0  0  0  0  0
   14.2220    5.6924   20.1940 C   0  0  0  0  0  0  0  0  0  0  0  0
    7.5473    6.0616   21.9204 N   0  0  0  0  0  0  0  0  0  0  0  0
    7.3102    3.7129   21.9822 C   0  0  0  0  0  0  0  0  0  0  0  0
   11.5205   10.2071   19.6963 C   0  0  0  0  0  0  0  0  0  0  0  0
    9.9384    8.1342   22.2984 C   0  0  0  0  0  0  0  0  0  0  0  0
   15.3464    7.0974   19.0960 C   0  0  0  0  0  0  0  0  0  0  0  0
   12.5007   10.2049   19.0589 C   0  0  0  0  0  0  0  0  0  0  0  0
    6.2066    6.8737   21.2944 C   0  0  0  0  0  0  0  0  0  0  0  0
    9.4861    5.5543   22.5568 C   0  0  0  0  0  0  0  0  0  0  0  0
   11.2524    7.8191   21.5122 C   0  0  0  0  0  0  0  0  0  0  0  0
   14.0997    8.0530   19.5983 C   0  0  0  0  0  0  0  0  0  0  0  0
   15.5423    6.2444   19.3495 C   0  0  0  0  0  0  0  0  0  0  0  0
   11.5835    9.1932   21.0149 N   0  0  0  0  0  0  0  0  0  0  0  0
    9.7469    9.4394   22.3931 O   0  0  0  0  0  0  0  0  0  0  0  0
    9.6569    7.0077   22.3108 C   0  0  0  0  0  0  0  0  0  0  0  0
  1  6  4  0
  1 22  4  0
  3 13  4  0
  4  5  1  0
  4 11  1  0
  5 18  1  0
  6 12  4  0
  7 13  4  0
  7 20  4  0
  8 18  1  0
  9 20  4  0
  9 26  4  0
 10 19  1  0
 12 23  4  0
 15 18  1  0
 16 21  4  0
 16 25  2  0
 16 26  1  0
 17 22  4  0
 17 23  4  0
 20 26  4  0
 21 24  1  0
M  END
$$$$

 Created by Python create_sdf_string function

 26 20  0  0  0  0  0  0  0  0999 V2000
   13.5768    8.4084   19.8882 C   0  0  0  0  0  0  0  0  0  0  0  0
   10.5343    9.0512   19.8257 O   0  0  0  0  0  0  0  0  0  0  0  0
    7.7296    4.4879   21.6867 C   0  0  0  0  0  0  0  0  0  0  0  0
   12.0807   12.4082   18.2479 C   0  0  0  0  0  0  0  0  0  0  0  0
   12.5210   11.7185   19.0155 C   0  0  0  0  0  0  0  0  0  0  0  0
   13.7334    6.3141   20.1826 C   0  0  0  0  0  0  0  0  0  0  0  0
    8.0733    6.9290   21.5492 C   0  0  0  0  0  0  0  0  0  0  0  0
   12.8575    9.4623   19.7629 C   0  0  0  0  0  0  0  0  0  0  0  0
   10.9022    6.0665   23.0882 C   0  0  0  0  0  0  0  0  0  0  0  0
    5.8779    7.0428   21.1318 O   0  0  0  0  0  0  0  0  0  0  0  0
   13.3183   12.1950   20.0129 O   0  0  0  0  0  0  0  0  0  0  0  0
   13.9538    6.6599   19.6449 C   0  0  0  0  0  0  0  0  0  0  0  0
    7.6011    5.3271   21.4158 C   0  0  0  0  0  0  0  0  0  0  0  0
    7.4820    4.0008   21.1864 C   0  0  0  0  0  0  0  0  0  0  0  0
   11.0420    9.9502   20.0699 C   0  0  0  0  0  0  0  0  0  0  0  0
    9.0677    8.5725   21.5105 C   0  0  0  0  0  0  0  0  0  0  0  0
   15.6377    7.0655   19.7847 C   0  0  0  0  0  0  0  0  0  0  0  0
   12.2922   10.3201   19.5169 N   0  0  0  0  0  0  0  0  0  0  0  0
    6.8802    7.2558   21.2965 C   0  0  0  0  0  0  0  0  0  0  0  0
    9.5981    5.3300   22.8580 C   0  0  0  0  0  0  0  0  0  0  0  0
    9.3791    7.1141   21.9490 C   0  0  0  0  0  0  0  0  0  0  0  0
   14.5839    8.2563   19.9107 C   0  0  0  0  0  0  0  0  0  0  0  0
   15.6861    6.7013   19.4167 C   0  0  0  0  0  0  0  0  0  0  0  0
   10.7167    7.9918   21.4745 N   0  0  0  0  0  0  0  0  0  0  0  0
    8.3515    9.3228   21.1959 O   0  0  0  0  0  0  0  0  0  0  0  0
    9.5201    5.8689   22.5444 C   0  0  0  0  0  0  0  0  0  0  0  0
  1  8  1  0
  1 22  4  0
  2 15  1  0
  3 13  1  0
  4  5  1  0
  5 11  1  0
  5 18  1  0
  6 12  4  0
  7 13  1  0
  7 19  1  0
  7 21  4  0
  8 18  1  0
 10 19  1  0
 12 23  4  0
 15 18  1  0
 16 25  1  0
 17 22  4  0
 17 23  4  0
 20 26  1  0
 21 24  1  0
M  END
$$$$

 Created by Python create_sdf_string function

 26 25  0  0  0  0  0  0  0  0999 V2000
   13.9125    8.3066   19.6720 C   0  0  0  0  0  0  0  0  0  0  0  0
   11.2293    8.9730   20.7514 N   0  0  0  0  0  0  0  0  0  0  0  0
    6.0154    5.2238   21.0368 C   0  0  0  0  0  0  0  0  0  0  0  0
   11.8420   11.4374   18.3839 C   0  0  0  0  0  0  0  0  0  0  0  0
   11.9517   11.9239   19.8153 C   0  0  0  0  0  0  0  0  0  0  0  0
   13.5863    6.5531   20.0252 C   0  0  0  0  0  0  0  0  0  0  0  0
    8.0711    6.2690   22.1316 C   0  0  0  0  0  0  0  0  0  0  0  0
   13.2546    9.5750   19.3490 C   0  0  0  0  0  0  0  0  0  0  0  0
   11.0129    6.2204   22.7740 C   0  0  0  0  0  0  0  0  0  0  0  0
    5.8289    6.4225   21.2998 C   0  0  0  0  0  0  0  0  0  0  0  0
   12.0286   12.5484   19.8344 O   0  0  0  0  0  0  0  0  0  0  0  0
   14.5764    5.8870   19.8874 C   0  0  0  0  0  0  0  0  0  0  0  0
    7.7817    5.1884   21.7365 C   0  0  0  0  0  0  0  0  0  0  0  0
    7.5247    4.0046   21.3180 C   0  0  0  0  0  0  0  0  0  0  0  0
   11.3781   10.5519   20.6055 C   0  0  0  0  0  0  0  0  0  0  0  0
    9.8313    8.5972   21.9096 C   0  0  0  0  0  0  0  0  0  0  0  0
   16.0736    7.2417   19.5570 C   0  0  0  0  0  0  0  0  0  0  0  0
   12.3164   10.0391   19.8076 N   0  0  0  0  0  0  0  0  0  0  0  0
    7.0307    7.0148   21.8689 C   0  0  0  0  0  0  0  0  0  0  0  0
   10.0679    5.1186   22.4877 C   0  0  0  0  0  0  0  0  0  0  0  0
   10.2461    7.3900   22.0098 N   0  0  0  0  0  0  0  0  0  0  0  0
   14.8852    8.2782   19.6675 C   0  0  0  0  0  0  0  0  0  0  0  0
   15.7437    6.1922   19.5133 C   0  0  0  0  0  0  0  0  0  0  0  0
   11.2397    8.4288   21.0538 C   0  0  0  0  0  0  0  0  0  0  0  0
    9.2920    9.6314   21.4368 O   0  0  0  0  0  0  0  0  0  0  0  0
    9.2977    6.1862   22.8520 C   0  0  0  0  0  0  0  0  0  0  0  0
  1  6  4  0
  1  8  1  0
  1 22  4  0
  2 24  1  0
  3 10  4  0
  4  5  1  0
  5 11  1  0
  6 12  4  0
  7 13  4  0
  7 19  4  0
  7 26  1  0
  8 18  1  0
  9 20  1  0
  9 21  1  0
 10 19  4  0
 12 23  4  0
 13 14  4  0
 15 18  1  0
 16 21  1  0
 16 25  2  0
 17 22  4  0
 17 23  4  0
 20 26  1  0
 21 24  1  0
 21 26  1  0
M  END
$$$$

 Created by Python create_sdf_string function

 26 25  0  0  0  0  0  0  0  0999 V2000
   13.5563    8.2900   19.8009 C   0  0  0  0  0  0  0  0  0  0  0  0
   11.2445    8.7427   20.6959 N   0  0  0  0  0  0  0  0  0  0  0  0
    5.7090    4.9665   21.0851 C   0  0  0  0  0  0  0  0  0  0  0  0
   10.9983   12.3900   18.4557 C   0  0  0  0  0  0  0  0  0  0  0  0
   11.3078   11.5335   19.2273 C   0  0  0  0  0  0  0  0  0  0  0  0
   13.2926    7.1086   20.3970 C   0  0  0  0  0  0  0  0  0  0  0  0
    8.0775    5.9955   21.9034 C   0  0  0  0  0  0  0  0  0  0  0  0
   12.7532    9.4803   19.3071 C   0  0  0  0  0  0  0  0  0  0  0  0
   10.4755    6.8330   23.1983 C   0  0  0  0  0  0  0  0  0  0  0  0
    5.6897    6.1294   21.6649 C   0  0  0  0  0  0  0  0  0  0  0  0
   11.0655   12.4414   19.6302 C   0  0  0  0  0  0  0  0  0  0  0  0
   14.5044    6.1600   20.3050 C   0  0  0  0  0  0  0  0  0  0  0  0
    7.8445    4.8372   21.1655 C   0  0  0  0  0  0  0  0  0  0  0  0
    6.9539    4.3576   20.8734 C   0  0  0  0  0  0  0  0  0  0  0  0
   11.3576    9.6781   20.3164 C   0  0  0  0  0  0  0  0  0  0  0  0
    9.8168    8.1185   21.3817 N   0  0  0  0  0  0  0  0  0  0  0  0
   15.4651    7.3369   19.6498 C   0  0  0  0  0  0  0  0  0  0  0  0
   12.1919   10.2613   19.0231 C   0  0  0  0  0  0  0  0  0  0  0  0
    6.8726    6.6651   22.0017 C   0  0  0  0  0  0  0  0  0  0  0  0
   10.2459    5.3450   23.0437 C   0  0  0  0  0  0  0  0  0  0  0  0
   10.2205    7.4875   21.9392 C   0  0  0  0  0  0  0  0  0  0  0  0
   15.0029    8.2411   19.5307 C   0  0  0  0  0  0  0  0  0  0  0  0
   16.1655    6.6926   19.5336 C   0  0  0  0  0  0  0  0  0  0  0  0
   11.0665    8.8140   20.7144 C   0  0  0  0  0  0  0  0  0  0  0  0
   10.0112   10.2440   21.6397 O   0  0  0  0  0  0  0  0  0  0  0  0
    9.1999    5.8856   22.7095 C   0  0  0  0  0  0  0  0  0  0  0  0
  1  6  4  0
  1  8  4  0
  1 22  4  0
  2 24  4  0
  3 10  4  0
  3 14  4  0
  4  5  1  0
  5 11  1  0
  5 18  4  0
  6 12  4  0
  7 13  4  0
  7 19  4  0
  7 26  1  0
  8 15  4  0
  8 18  4  0
  9 20  1  0
  9 21  1  0
 10 19  4  0
 13 14  4  0
 15 24  4  0
 16 21  1  0
 17 22  4  0
 17 23  2  0
 20 26  1  0
 21 26  1  0
M  END
$$$$

 Created by Python create_sdf_string function

 26 22  0  0  0  0  0  0  0  0999 V2000
   13.5996    8.1755   19.6527 C   0  0  0  0  0  0  0  0  0  0  0  0
   10.5289    9.0671   20.4226 C   0  0  0  0  0  0  0  0  0  0  0  0
    5.7126    4.6890   21.5601 C   0  0  0  0  0  0  0  0  0  0  0  0
   11.2998   11.7595   18.7781 C   0  0  0  0  0  0  0  0  0  0  0  0
   11.6480   11.1018   19.0739 C   0  0  0  0  0  0  0  0  0  0  0  0
   13.0200    7.1112   20.6340 C   0  0  0  0  0  0  0  0  0  0  0  0
    8.0016    5.6518   22.3202 C   0  0  0  0  0  0  0  0  0  0  0  0
   12.4601    9.2132   19.3397 C   0  0  0  0  0  0  0  0  0  0  0  0
    9.7353    6.1894   22.8829 C   0  0  0  0  0  0  0  0  0  0  0  0
    5.8078    5.5527   22.3870 C   0  0  0  0  0  0  0  0  0  0  0  0
   11.0307   12.6287   19.0970 O   0  0  0  0  0  0  0  0  0  0  0  0
   13.9967    6.2329   20.5464 C   0  0  0  0  0  0  0  0  0  0  0  0
    7.5081    4.6215   21.3388 C   0  0  0  0  0  0  0  0  0  0  0  0
    7.2117    4.6140   20.7270 C   0  0  0  0  0  0  0  0  0  0  0  0
   11.0993    9.4908   20.2953 C   0  0  0  0  0  0  0  0  0  0  0  0
   10.0629    7.4806   22.1407 N   0  0  0  0  0  0  0  0  0  0  0  0
   15.0528    7.0241   19.7277 C   0  0  0  0  0  0  0  0  0  0  0  0
   12.6641    9.8490   18.8544 C   0  0  0  0  0  0  0  0  0  0  0  0
    7.1406    6.1814   22.7347 C   0  0  0  0  0  0  0  0  0  0  0  0
   10.4216    5.2746   23.0320 O   0  0  0  0  0  0  0  0  0  0  0  0
   11.7331    7.4343   21.2252 C   0  0  0  0  0  0  0  0  0  0  0  0
   15.1276    8.4871   19.1541 O   0  0  0  0  0  0  0  0  0  0  0  0
   16.0966    6.3943   19.4950 O   0  0  0  0  0  0  0  0  0  0  0  0
   10.8443    8.0044   20.1407 C   0  0  0  0  0  0  0  0  0  0  0  0
   10.5326   10.6841   21.3373 O   0  0  0  0  0  0  0  0  0  0  0  0
    9.4192    6.1553   24.0824 C   0  0  0  0  0  0  0  0  0  0  0  0
  1  6  1  0
  1  8  1  0
  1 22  1  0
  2 15  1  0
  3 10  4  0
  3 14  4  0
  4  5  1  0
  4 11  1  0
  5 18  1  0
  6 12  1  0
  6 21  1  0
  7  9  1  0
  7 13  4  0
  7 19  4  0
  8 18  1  0
  9 16  1  0
  9 20  1  0
  9 26  1  0
 10 19  4  0
 12 17  1  0
 13 14  4  0
 17 23  1  0
M  END
$$$$

 Created by Python create_sdf_string function

 26 28  0  0  0  0  0  0  0  0999 V2000
   13.5580    7.9234   19.4418 C   0  0  0  0  0  0  0  0  0  0  0  0
   10.4899    8.8965   21.2898 C   0  0  0  0  0  0  0  0  0  0  0  0
    5.6932    5.1206   21.3635 C   0  0  0  0  0  0  0  0  0  0  0  0
   11.5959   11.6804   19.4608 C   0  0  0  0  0  0  0  0  0  0  0  0
   12.0919    9.9134   19.7052 C   0  0  0  0  0  0  0  0  0  0  0  0
   12.6718    6.8768   20.0993 C   0  0  0  0  0  0  0  0  0  0  0  0
    8.0526    6.0095   22.3321 C   0  0  0  0  0  0  0  0  0  0  0  0
   12.8934    9.1877   18.4350 C   0  0  0  0  0  0  0  0  0  0  0  0
    9.6118    6.5521   23.0681 P   0  0  0  0  0  0  0  0  0  0  0  0
    5.7748    5.5200   22.4914 C   0  0  0  0  0  0  0  0  0  0  0  0
   11.8051   12.1351   19.8286 O   0  0  0  0  0  0  0  0  0  0  0  0
   14.3877    5.6205   20.7533 C   0  0  0  0  0  0  0  0  0  0  0  0
    7.6906    5.4978   20.9853 C   0  0  0  0  0  0  0  0  0  0  0  0
    7.0452    5.2571   20.7073 C   0  0  0  0  0  0  0  0  0  0  0  0
   11.2932    9.0856   20.4907 C   0  0  0  0  0  0  0  0  0  0  0  0
    9.6888    7.8511   22.2981 O   0  0  0  0  0  0  0  0  0  0  0  0
   15.1230    6.3422   19.8726 C   0  0  0  0  0  0  0  0  0  0  0  0
   12.8263   10.5359   18.9798 C   0  0  0  0  0  0  0  0  0  0  0  0
    6.9689    6.0282   23.0643 C   0  0  0  0  0  0  0  0  0  0  0  0
   10.7585    5.7293   22.7017 O   0  0  0  0  0  0  0  0  0  0  0  0
   12.6854    6.7689   20.5175 C   0  0  0  0  0  0  0  0  0  0  0  0
   14.6909    8.0583   19.1504 C   0  0  0  0  0  0  0  0  0  0  0  0
   15.9734    5.9704   19.4126 O   0  0  0  0  0  0  0  0  0  0  0  0
   11.0760    7.5260   20.0364 C   0  0  0  0  0  0  0  0  0  0  0  0
   10.4311   10.1488   21.5389 O   0  0  0  0  0  0  0  0  0  0  0  0
    9.4083    6.5385   24.4427 O   0  0  0  0  0  0  0  0  0  0  0  0
  1  6  1  0
  1  8  1  0
  1 22  1  0
  2 15  1  0
  2 16  1  0
  2 25  1  0
  3 10  4  0
  3 14  4  0
  4 11  1  0
  4 18  1  0
  5  8  1  0
  5 15  1  0
  5 18  1  0
  6 21  1  0
  6 24  1  0
  7  9  1  0
  7 13  4  0
  7 19  4  0
  8 18  1  0
  9 16  1  0
  9 20  1  0
  9 26  2  0
 10 19  4  0
 12 17  1  0
 13 14  4  0
 15 24  1  0
 17 22  1  0
 17 23  2  0
M  END
$$$$

 Created by Python create_sdf_string function

 26 27  0  0  0  0  0  0  0  0999 V2000
   13.6538    8.1762   19.0540 C   0  0  0  0  0  0  0  0  0  0  0  0
   10.6068   10.4007   20.8579 C   0  0  0  0  0  0  0  0  0  0  0  0
    5.7115    5.6876   20.9809 C   0  0  0  0  0  0  0  0  0  0  0  0
   12.3235   11.5810   19.4874 C   0  0  0  0  0  0  0  0  0  0  0  0
   11.8895    9.4272   19.5024 C   0  0  0  0  0  0  0  0  0  0  0  0
   12.4515    7.0813   20.3456 C   0  0  0  0  0  0  0  0  0  0  0  0
    8.0694    5.8329   22.4419 C   0  0  0  0  0  0  0  0  0  0  0  0
   12.7316    9.2201   18.7859 C   0  0  0  0  0  0  0  0  0  0  0  0
    9.8304    6.2150   23.1047 P   0  0  0  0  0  0  0  0  0  0  0  0
    5.6546    5.9911   22.2200 C   0  0  0  0  0  0  0  0  0  0  0  0
   11.2500   11.7569   20.0273 C   0  0  0  0  0  0  0  0  0  0  0  0
   14.5699    5.6421   20.2362 C   0  0  0  0  0  0  0  0  0  0  0  0
    7.9791    5.2537   21.2962 C   0  0  0  0  0  0  0  0  0  0  0  0
    6.8377    5.2297   20.5644 C   0  0  0  0  0  0  0  0  0  0  0  0
   11.1273    9.0266   20.6230 C   0  0  0  0  0  0  0  0  0  0  0  0
   10.1562    7.2764   22.1380 O   0  0  0  0  0  0  0  0  0  0  0  0
   14.1107    5.4107   20.3553 O   0  0  0  0  0  0  0  0  0  0  0  0
   12.3407   10.3502   18.5181 C   0  0  0  0  0  0  0  0  0  0  0  0
    6.7104    5.9610   22.9288 C   0  0  0  0  0  0  0  0  0  0  0  0
   10.4329    4.9882   22.8956 O   0  0  0  0  0  0  0  0  0  0  0  0
   13.2393    6.8270   20.0202 C   0  0  0  0  0  0  0  0  0  0  0  0
   14.9593    7.5181   18.9551 C   0  0  0  0  0  0  0  0  0  0  0  0
   15.4242    6.4554   19.2916 C   0  0  0  0  0  0  0  0  0  0  0  0
   11.3841    7.5278   20.9521 C   0  0  0  0  0  0  0  0  0  0  0  0
   10.1931   10.6932   21.4119 O   0  0  0  0  0  0  0  0  0  0  0  0
    9.9324    6.5682   24.3913 O   0  0  0  0  0  0  0  0  0  0  0  0
  1  8  1  0
  2 11  1  0
  2 15  1  0
  2 25  1  0
  3 10  4  0
  3 14  4  0
  4 11  1  0
  4 18  1  0
  5  8  1  0
  5 15  1  0
  5 18  1  0
  6 21  1  0
  6 24  1  0
  7  9  1  0
  7 13  4  0
  7 19  4  0
  8 18  1  0
  9 16  1  0
  9 20  2  0
  9 26  2  0
 10 19  4  0
 12 17  4  0
 12 23  4  0
 13 14  4  0
 15 24  1  0
 16 24  1  0
 22 23  4  0
M  END
$$$$

 Created by Python create_sdf_string function

 26 26  0  0  0  0  0  0  0  0999 V2000
   13.6692    8.1165   19.2669 C   0  0  0  0  0  0  0  0  0  0  0  0
   10.8019   10.1555   20.2902 N   0  0  0  0  0  0  0  0  0  0  0  0
    5.6072    5.3092   21.4464 C   0  0  0  0  0  0  0  0  0  0  0  0
   11.4106   11.0899   19.3147 N   0  0  0  0  0  0  0  0  0  0  0  0
   12.8015    9.9905   18.2519 C   0  0  0  0  0  0  0  0  0  0  0  0
   12.8339    7.1443   20.4773 C   0  0  0  0  0  0  0  0  0  0  0  0
    8.1161    5.8592   22.3005 C   0  0  0  0  0  0  0  0  0  0  0  0
   12.9943    9.6753   18.7153 C   0  0  0  0  0  0  0  0  0  0  0  0
    9.6482    6.2601   22.7724 S   0  0  0  0  0  0  0  0  0  0  0  0
    5.6959    6.1796   22.4164 C   0  0  0  0  0  0  0  0  0  0  0  0
   11.2488   10.9873   18.4047 C   0  0  0  0  0  0  0  0  0  0  0  0
   14.7109    5.8656   20.0235 C   0  0  0  0  0  0  0  0  0  0  0  0
    7.8677    4.8873   21.3239 C   0  0  0  0  0  0  0  0  0  0  0  0
    6.5381    4.6985   20.9603 C   0  0  0  0  0  0  0  0  0  0  0  0
   10.8035    9.0830   20.6481 C   0  0  0  0  0  0  0  0  0  0  0  0
   10.2953    7.3415   21.9726 N   0  0  0  0  0  0  0  0  0  0  0  0
   14.5372    5.2418   20.5211 C   0  0  0  0  0  0  0  0  0  0  0  0
   12.8617   11.1829   19.6943 C   0  0  0  0  0  0  0  0  0  0  0  0
    7.0355    6.5088   22.9138 C   0  0  0  0  0  0  0  0  0  0  0  0
   10.3063    5.0971   22.9061 O   0  0  0  0  0  0  0  0  0  0  0  0
   12.6067    7.4407   20.4426 C   0  0  0  0  0  0  0  0  0  0  0  0
   14.8860    7.7055   18.7621 C   0  0  0  0  0  0  0  0  0  0  0  0
   15.4065    6.5240   19.1618 C   0  0  0  0  0  0  0  0  0  0  0  0
   10.8785    7.9991   21.2258 N   0  0  0  0  0  0  0  0  0  0  0  0
    9.7892   10.1450   21.3938 O   0  0  0  0  0  0  0  0  0  0  0  0
    9.5072    7.2702   23.9611 O   0  0  0  0  0  0  0  0  0  0  0  0
  1  6  4  0
  1  8  1  0
  1 22  4  0
  2  4  1  0
  2 15  1  0
  2 25  1  0
  3 10  4  0
  3 14  4  0
  4 11  1  0
  4 18  1  0
  5  8  1  0
  5 11  1  0
  6 21  4  0
  7  9  1  0
  7 13  4  0
  7 19  4  0
  9 16  1  0
  9 20  2  0
  9 26  2  0
 10 19  4  0
 12 17  4  0
 12 23  4  0
 13 14  4  0
 15 24  1  0
 16 24  1  0
 22 23  4  0
M  END
$$$$

 Created by Python create_sdf_string function

 26 24  0  0  0  0  0  0  0  0999 V2000
   13.4660    8.0920   19.4070 C   0  0  0  0  0  0  0  0  0  0  0  0
   10.5524    9.9910   20.3880 N   0  0  0  0  0  0  0  0  0  0  0  0
    5.8288    5.0999   21.2919 C   0  0  0  0  0  0  0  0  0  0  0  0
   11.0078   10.9302   19.4631 C   0  0  0  0  0  0  0  0  0  0  0  0
   12.6673   10.6475   18.8418 C   0  0  0  0  0  0  0  0  0  0  0  0
   12.9549    7.1353   20.4341 C   0  0  0  0  0  0  0  0  0  0  0  0
    8.2219    5.5597   22.3871 C   0  0  0  0  0  0  0  0  0  0  0  0
   12.9026    9.6624   18.4740 C   0  0  0  0  0  0  0  0  0  0  0  0
   10.1050    5.7283   23.1923 S   0  0  0  0  0  0  0  0  0  0  0  0
    5.8810    5.8495   22.3685 C   0  0  0  0  0  0  0  0  0  0  0  0
   12.1996   10.5486   18.4989 C   0  0  0  0  0  0  0  0  0  0  0  0
   14.1312    5.9822   20.3517 C   0  0  0  0  0  0  0  0  0  0  0  0
    8.1139    4.7342   21.2859 C   0  0  0  0  0  0  0  0  0  0  0  0
    6.8659    4.5279   20.7653 C   0  0  0  0  0  0  0  0  0  0  0  0
   11.1411    8.5814   20.8309 C   0  0  0  0  0  0  0  0  0  0  0  0
   11.0874    7.1215   22.7232 N   0  0  0  0  0  0  0  0  0  0  0  0
   13.8465    5.1066   20.9874 O   0  0  0  0  0  0  0  0  0  0  0  0
   11.2391   11.4821   19.4858 C   0  0  0  0  0  0  0  0  0  0  0  0
    7.0670    6.1451   22.9508 C   0  0  0  0  0  0  0  0  0  0  0  0
    9.9369    5.6787   22.9984 C   0  0  0  0  0  0  0  0  0  0  0  0
   12.2645    7.9537   20.3501 C   0  0  0  0  0  0  0  0  0  0  0  0
   14.5941    7.6823   18.8867 C   0  0  0  0  0  0  0  0  0  0  0  0
   15.0083    6.4737   19.4462 C   0  0  0  0  0  0  0  0  0  0  0  0
   10.2976    8.3498   21.5755 N   0  0  0  0  0  0  0  0  0  0  0  0
    9.7353    9.9786   21.2256 C   0  0  0  0  0  0  0  0  0  0  0  0
    9.7009    6.6450   24.0448 O   0  0  0  0  0  0  0  0  0  0  0  0
  1  6  4  0
  1  8  1  0
  1 22  4  0
  2  4  1  0
  2 25  1  0
  3 10  4  0
  3 14  4  0
  4 18  1  0
  5 11  1  0
  6 12  4  0
  6 21  4  0
  7 13  4  0
  7 19  4  0
  7 20  1  0
  9 20  1  0
  9 26  2  0
 10 19  4  0
 12 17  1  0
 12 23  4  0
 13 14  4  0
 15 21  4  0
 15 24  1  0
 16 24  1  0
 22 23  4  0
M  END
$$$$

 Created by Python create_sdf_string function

 26 28  0  0  0  0  0  0  0  0999 V2000
   13.5285    8.2409   19.1674 C   0  0  0  0  0  0  0  0  0  0  0  0
   10.2499   10.9950   20.7739 C   0  0  0  0  0  0  0  0  0  0  0  0
    5.7050    5.2367   21.2203 C   0  0  0  0  0  0  0  0  0  0  0  0
   10.6295   11.5799   19.6829 O   0  0  0  0  0  0  0  0  0  0  0  0
   12.5213   10.8232   17.7702 O   0  0  0  0  0  0  0  0  0  0  0  0
   12.5835    6.7888   20.3440 C   0  0  0  0  0  0  0  0  0  0  0  0
    8.2506    5.7942   22.2085 C   0  0  0  0  0  0  0  0  0  0  0  0
   13.3052    9.5563   18.5966 C   0  0  0  0  0  0  0  0  0  0  0  0
   10.3446    5.2009   23.1210 C   0  0  0  0  0  0  0  0  0  0  0  0
    5.8713    6.1168   22.1745 C   0  0  0  0  0  0  0  0  0  0  0  0
   12.1775   10.0558   19.1717 C   0  0  0  0  0  0  0  0  0  0  0  0
   13.8045    5.7372   20.0892 C   0  0  0  0  0  0  0  0  0  0  0  0
    8.0112    4.7900   21.1746 C   0  0  0  0  0  0  0  0  0  0  0  0
    6.7669    4.5597   20.7247 C   0  0  0  0  0  0  0  0  0  0  0  0
   11.5346    8.8909   20.3769 C   0  0  0  0  0  0  0  0  0  0  0  0
   10.4637    7.3530   22.3057 N   0  0  0  0  0  0  0  0  0  0  0  0
   13.0384    5.1395   20.7181 O   0  0  0  0  0  0  0  0  0  0  0  0
   11.1033   10.8844   19.7759 C   0  0  0  0  0  0  0  0  0  0  0  0
    7.1465    6.4330   22.7222 C   0  0  0  0  0  0  0  0  0  0  0  0
    9.6201    6.1039   22.7036 C   0  0  0  0  0  0  0  0  0  0  0  0
   12.4557    7.8652   20.1024 C   0  0  0  0  0  0  0  0  0  0  0  0
   14.5594    7.5220   18.8621 C   0  0  0  0  0  0  0  0  0  0  0  0
   14.8240    6.3605   19.2724 C   0  0  0  0  0  0  0  0  0  0  0  0
   10.6836    8.2048   21.3386 C   0  0  0  0  0  0  0  0  0  0  0  0
   10.0418    9.9484   21.5675 C   0  0  0  0  0  0  0  0  0  0  0  0
    9.9147    6.4419   24.1653 O   0  0  0  0  0  0  0  0  0  0  0  0
  1  8  4  0
  1 21  4  0
  1 22  4  0
  2  4  4  0
  2 25  4  0
  3 10  4  0
  3 14  4  0
  4 18  4  0
  5 11  1  0
  6 12  4  0
  6 21  4  0
  7 13  4  0
  7 19  4  0
  7 20  1  0
  8 11  4  0
  9 20  1  0
 10 19  4  0
 11 15  4  0
 11 18  4  0
 12 17  1  0
 12 23  4  0
 13 14  4  0
 15 21  4  0
 15 24  1  0
 16 20  1  0
 16 24  1  0
 20 26  2  0
 22 23  4  0
M  END
$$$$

 Created by Python create_sdf_string function

 26 23  0  0  0  0  0  0  0  0999 V2000
   12.9400    7.9563   19.7517 C   0  0  0  0  0  0  0  0  0  0  0  0
   11.1650   10.2603   20.0154 C   0  0  0  0  0  0  0  0  0  0  0  0
    5.6521    4.7793   21.5591 C   0  0  0  0  0  0  0  0  0  0  0  0
   10.9970   11.4634   18.9371 O   0  0  0  0  0  0  0  0  0  0  0  0
   11.8272   11.3113   17.7924 O   0  0  0  0  0  0  0  0  0  0  0  0
   11.8273    5.2357   20.6968 C   0  0  0  0  0  0  0  0  0  0  0  0
    8.3041    5.3124   22.0416 C   0  0  0  0  0  0  0  0  0  0  0  0
   12.8777    9.1857   19.0597 C   0  0  0  0  0  0  0  0  0  0  0  0
   10.4136    4.6187   22.0152 C   0  0  0  0  0  0  0  0  0  0  0  0
    6.0340    5.0035   22.8006 C   0  0  0  0  0  0  0  0  0  0  0  0
   11.8369    9.9296   19.5802 C   0  0  0  0  0  0  0  0  0  0  0  0
   13.2506    5.6753   20.1544 C   0  0  0  0  0  0  0  0  0  0  0  0
    7.8576    5.0794   20.8130 C   0  0  0  0  0  0  0  0  0  0  0  0
    6.5274    4.8665   20.5999 C   0  0  0  0  0  0  0  0  0  0  0  0
   11.2382    8.5284   21.1393 C   0  0  0  0  0  0  0  0  0  0  0  0
   10.2998    7.0832   22.1298 N   0  0  0  0  0  0  0  0  0  0  0  0
   12.9929    5.0116   20.4807 C   0  0  0  0  0  0  0  0  0  0  0  0
   10.1212   11.9312   19.3553 O   0  0  0  0  0  0  0  0  0  0  0  0
    7.4220    5.3033   23.0673 C   0  0  0  0  0  0  0  0  0  0  0  0
    9.8514    5.8991   22.3303 C   0  0  0  0  0  0  0  0  0  0  0  0
   12.1193    7.8993   20.5343 C   0  0  0  0  0  0  0  0  0  0  0  0
   14.4379    6.7844   19.2188 C   0  0  0  0  0  0  0  0  0  0  0  0
   14.7599    6.5820   19.0761 O   0  0  0  0  0  0  0  0  0  0  0  0
   10.3937    8.4716   22.0909 C   0  0  0  0  0  0  0  0  0  0  0  0
   10.2615   10.2721   21.4516 C   0  0  0  0  0  0  0  0  0  0  0  0
   10.2038    6.1091   23.7626 O   0  0  0  0  0  0  0  0  0  0  0  0
  1  8  4  0
  1 21  4  0
  2  4  1  0
  2 11  4  0
  3 10  4  0
  3 14  4  0
  4  5  1  0
  4 18  2  0
  6 12  1  0
  7 13  4  0
  7 19  4  0
  7 20  1  0
  8 11  4  0
  9 20  1  0
 10 19  4  0
 12 17  1  0
 13 14  4  0
 15 21  4  0
 15 24  4  0
 16 20  1  0
 16 24  1  0
 20 26  2  0
 22 23  4  0
M  END
$$$$

 Created by Python create_sdf_string function

 26 26  0  0  0  0  0  0  0  0999 V2000
   12.8140    7.7073   19.7555 C   0  0  0  0  0  0  0  0  0  0  0  0
   11.6298   11.2447   19.8191 C   0  0  0  0  0  0  0  0  0  0  0  0
    5.8983    4.0710   21.4125 C   0  0  0  0  0  0  0  0  0  0  0  0
   10.8300   11.6510   19.0852 C   0  0  0  0  0  0  0  0  0  0  0  0
   11.0986   11.4465   17.8863 O   0  0  0  0  0  0  0  0  0  0  0  0
   12.5914    4.6211   19.9163 C   0  0  0  0  0  0  0  0  0  0  0  0
    8.2536    5.3561   22.0638 C   0  0  0  0  0  0  0  0  0  0  0  0
   12.9962    9.0976   19.2216 C   0  0  0  0  0  0  0  0  0  0  0  0
   10.5365    5.3038   22.5644 C   0  0  0  0  0  0  0  0  0  0  0  0
    6.1318    4.5262   22.6207 C   0  0  0  0  0  0  0  0  0  0  0  0
   11.5010    9.4827   20.1695 C   0  0  0  0  0  0  0  0  0  0  0  0
   12.7356    5.4669   19.9690 O   0  0  0  0  0  0  0  0  0  0  0  0
    7.9446    4.9414   20.8135 C   0  0  0  0  0  0  0  0  0  0  0  0
    6.7714    4.2835   20.4753 C   0  0  0  0  0  0  0  0  0  0  0  0
   11.2643    7.2265   20.9535 C   0  0  0  0  0  0  0  0  0  0  0  0
    9.7680    7.3099   22.3733 N   0  0  0  0  0  0  0  0  0  0  0  0
   11.7690    5.8127   20.9252 C   0  0  0  0  0  0  0  0  0  0  0  0
   10.0555   12.4067   19.4228 O   0  0  0  0  0  0  0  0  0  0  0  0
    7.2802    5.1288   22.9845 C   0  0  0  0  0  0  0  0  0  0  0  0
    9.4881    5.9730   22.5014 C   0  0  0  0  0  0  0  0  0  0  0  0
   11.9461    8.2599   20.2551 C   0  0  0  0  0  0  0  0  0  0  0  0
   14.6000    6.6712   18.7986 O   0  0  0  0  0  0  0  0  0  0  0  0
   13.6473    6.7013   19.4355 C   0  0  0  0  0  0  0  0  0  0  0  0
   10.3604    8.1627   21.6467 C   0  0  0  0  0  0  0  0  0  0  0  0
   10.3611   10.1353   20.8625 C   0  0  0  0  0  0  0  0  0  0  0  0
   10.4154    5.6415   24.0003 O   0  0  0  0  0  0  0  0  0  0  0  0
  1  8  4  0
  1 21  4  0
  1 23  4  0
  2  4  1  0
  3 10  4  0
  3 14  4  0
  4  5  1  0
  4 18  2  0
  6 12  1  0
  7 13  4  0
  7 19  4  0
  7 20  1  0
  8 11  4  0
  9 20  1  0
 10 19  4  0
 11 21  4  0
 11 25  1  0
 12 17  1  0
 12 23  4  0
 13 14  4  0
 15 17  4  0
 15 21  4  0
 15 24  4  0
 16 20  1  0
 16 24  1  0
 22 23  2  0
M  END
$$$$

 Created by Python create_sdf_string function

 26 28  0  0  0  0  0  0  0  0999 V2000
   12.9535    8.4118   19.4475 C   0  0  0  0  0  0  0  0  0  0  0  0
   11.6027   11.5339   20.0590 N   0  0  0  0  0  0  0  0  0  0  0  0
    5.6179    4.2125   21.1868 C   0  0  0  0  0  0  0  0  0  0  0  0
   10.6536   11.9267   19.1902 C   0  0  0  0  0  0  0  0  0  0  0  0
   10.9985   12.1474   17.9371 O   0  0  0  0  0  0  0  0  0  0  0  0
   12.5997    5.2396   20.6307 C   0  0  0  0  0  0  0  0  0  0  0  0
    7.8952    5.3530   21.7549 C   0  0  0  0  0  0  0  0  0  0  0  0
   12.8486    9.6218   18.9893 C   0  0  0  0  0  0  0  0  0  0  0  0
   10.1512    5.3550   22.3359 C   0  0  0  0  0  0  0  0  0  0  0  0
    5.9787    4.5293   22.4519 C   0  0  0  0  0  0  0  0  0  0  0  0
   11.4302    9.8552   20.2621 C   0  0  0  0  0  0  0  0  0  0  0  0
   13.3460    5.9732   19.8441 C   0  0  0  0  0  0  0  0  0  0  0  0
    7.5354    5.1345   20.4753 C   0  0  0  0  0  0  0  0  0  0  0  0
    6.3946    4.5789   20.2744 C   0  0  0  0  0  0  0  0  0  0  0  0
   11.4986    7.5258   21.0390 C   0  0  0  0  0  0  0  0  0  0  0  0
    9.8676    6.9932   22.6404 C   0  0  0  0  0  0  0  0  0  0  0  0
   11.6977    6.0696   21.2613 C   0  0  0  0  0  0  0  0  0  0  0  0
    9.5701   12.2034   19.6525 O   0  0  0  0  0  0  0  0  0  0  0  0
    7.0533    5.1467   22.6636 C   0  0  0  0  0  0  0  0  0  0  0  0
    9.1673    5.7225   22.4206 C   0  0  0  0  0  0  0  0  0  0  0  0
   12.0227    8.1939   20.3624 C   0  0  0  0  0  0  0  0  0  0  0  0
   14.6827    7.2881   18.4836 O   0  0  0  0  0  0  0  0  0  0  0  0
   13.6682    7.2020   19.2824 C   0  0  0  0  0  0  0  0  0  0  0  0
   10.4027    7.9904   21.7479 C   0  0  0  0  0  0  0  0  0  0  0  0
   10.5131    9.9141   20.8462 C   0  0  0  0  0  0  0  0  0  0  0  0
   10.2535    5.9476   23.6996 O   0  0  0  0  0  0  0  0  0  0  0  0
  1  8  4  0
  1 21  4  0
  1 23  4  0
  2  4  1  0
  2 11  1  0
  3 10  4  0
  3 14  4  0
  4  5  1  0
  4 18  2  0
  6 12  4  0
  6 17  4  0
  7 13  4  0
  7 19  4  0
  7 20  1  0
  8 11  4  0
  9 20  1  0
 10 19  4  0
 11 21  4  0
 11 25  4  0
 12 23  4  0
 13 14  4  0
 15 17  4  0
 15 21  4  0
 15 24  4  0
 16 20  1  0
 16 24  1  0
 22 23  2  0
 24 25  1  0
M  END
$$$$

 Created by Python create_sdf_string function

 26 30  0  0  0  0  0  0  0  0999 V2000
   12.9034    8.2119   19.6640 C   0  0  0  0  0  0  0  0  0  0  0  0
   11.5074   10.8682   19.7871 C   0  0  0  0  0  0  0  0  0  0  0  0
    5.5036    4.5169   21.3076 C   0  0  0  0  0  0  0  0  0  0  0  0
   10.5624   11.8763   19.0214 C   0  0  0  0  0  0  0  0  0  0  0  0
   10.9329   11.9844   17.8835 O   0  0  0  0  0  0  0  0  0  0  0  0
   12.2659    5.1814   20.6840 C   0  0  0  0  0  0  0  0  0  0  0  0
    7.8977    5.1330   21.8488 C   0  0  0  0  0  0  0  0  0  0  0  0
   13.1740   10.1892   19.3998 C   0  0  0  0  0  0  0  0  0  0  0  0
   10.1938    5.3641   22.0343 C   0  0  0  0  0  0  0  0  0  0  0  0
    5.8060    4.8443   22.4898 C   0  0  0  0  0  0  0  0  0  0  0  0
   11.2149    9.7436   20.1256 N   0  0  0  0  0  0  0  0  0  0  0  0
   13.2400    5.9093   19.8817 C   0  0  0  0  0  0  0  0  0  0  0  0
    7.6245    4.7453   20.5952 C   0  0  0  0  0  0  0  0  0  0  0  0
    6.3436    4.4953   20.3406 C   0  0  0  0  0  0  0  0  0  0  0  0
   11.2667    7.3856   21.0544 C   0  0  0  0  0  0  0  0  0  0  0  0
    9.6455    7.6161   22.5791 C   0  0  0  0  0  0  0  0  0  0  0  0
   11.2608    5.8709   21.2219 C   0  0  0  0  0  0  0  0  0  0  0  0
    9.6631   12.4527   19.4663 O   0  0  0  0  0  0  0  0  0  0  0  0
    7.1544    5.1936   22.8133 C   0  0  0  0  0  0  0  0  0  0  0  0
    9.3786    6.1913   22.6942 C   0  0  0  0  0  0  0  0  0  0  0  0
   11.8271    8.2050   20.3021 C   0  0  0  0  0  0  0  0  0  0  0  0
   14.1636    6.5773   18.8929 O   0  0  0  0  0  0  0  0  0  0  0  0
   13.4566    6.9988   19.4265 C   0  0  0  0  0  0  0  0  0  0  0  0
   10.2709    8.1993   21.7452 C   0  0  0  0  0  0  0  0  0  0  0  0
   10.2518    9.9991   20.6586 C   0  0  0  0  0  0  0  0  0  0  0  0
    9.1605    6.3762   23.7612 O   0  0  0  0  0  0  0  0  0  0  0  0
  1  8  1  0
  1 21  4  0
  1 23  4  0
  2  4  1  0
  2  8  1  0
  2 11  1  0
  2 25  1  0
  3 10  4  0
  3 14  4  0
  4  5  1  0
  4 18  2  0
  6 12  4  0
  6 17  4  0
  7 13  4  0
  7 19  4  0
  7 20  1  0
  9 17  1  0
  9 20  1  0
 10 19  4  0
 11 21  1  0
 11 25  1  0
 12 23  4  0
 13 14  4  0
 15 17  4  0
 15 21  4  0
 15 24  4  0
 16 20  1  0
 16 24  1  0
 20 26  1  0
 24 25  1  0
M  END
$$$$

 Created by Python create_sdf_string function

 26 30  0  0  0  0  0  0  0  0999 V2000
   12.3294    9.0639   19.7379 C   0  0  0  0  0  0  0  0  0  0  0  0
   11.4775   11.2840   19.4608 C   0  0  0  0  0  0  0  0  0  0  0  0
    5.5776    4.4117   21.5858 C   0  0  0  0  0  0  0  0  0  0  0  0
   10.4760   11.9232   18.9036 C   0  0  0  0  0  0  0  0  0  0  0  0
   10.5865   11.8701   17.6647 O   0  0  0  0  0  0  0  0  0  0  0  0
   12.3338    5.1064   21.1416 C   0  0  0  0  0  0  0  0  0  0  0  0
    8.2414    5.2156   21.9513 C   0  0  0  0  0  0  0  0  0  0  0  0
   13.1954    9.5095   19.0844 O   0  0  0  0  0  0  0  0  0  0  0  0
   10.0253    5.3391   22.1161 C   0  0  0  0  0  0  0  0  0  0  0  0
    5.9406    4.9335   22.7385 C   0  0  0  0  0  0  0  0  0  0  0  0
   11.2201    9.9459   20.0105 C   0  0  0  0  0  0  0  0  0  0  0  0
   13.2301    5.4767   20.1981 C   0  0  0  0  0  0  0  0  0  0  0  0
    7.6667    4.5733   20.7331 C   0  0  0  0  0  0  0  0  0  0  0  0
    6.4041    4.2918   20.6652 C   0  0  0  0  0  0  0  0  0  0  0  0
   11.1865    7.2614   21.0965 C   0  0  0  0  0  0  0  0  0  0  0  0
    9.6169    7.9641   22.2354 N   0  0  0  0  0  0  0  0  0  0  0  0
   11.3478    5.8872   21.4125 C   0  0  0  0  0  0  0  0  0  0  0  0
    9.7201   12.5986   19.4038 O   0  0  0  0  0  0  0  0  0  0  0  0
    7.3315    5.3991   22.9103 C   0  0  0  0  0  0  0  0  0  0  0  0
    9.3520    6.3996   22.7623 C   0  0  0  0  0  0  0  0  0  0  0  0
   12.2031    7.6703   20.2719 C   0  0  0  0  0  0  0  0  0  0  0  0
   14.3945    6.7046   18.6017 O   0  0  0  0  0  0  0  0  0  0  0  0
   13.2894    6.7226   19.7136 C   0  0  0  0  0  0  0  0  0  0  0  0
   10.3372    8.3203   21.4060 C   0  0  0  0  0  0  0  0  0  0  0  0
   10.2949    9.6798   20.7867 C   0  0  0  0  0  0  0  0  0  0  0  0
    9.3953    6.6599   24.1293 O   0  0  0  0  0  0  0  0  0  0  0  0
  1  8  1  0
  1 11  4  0
  1 21  4  0
  2  4  1  0
  2 11  1  0
  3 10  4  0
  3 14  4  0
  4  5  1  0
  4 18  2  0
  6 12  4  0
  6 17  4  0
  7  9  1  0
  7 13  4  0
  7 19  4  0
  7 20  1  0
  9 17  1  0
  9 20  1  0
 10 19  4  0
 11 25  4  0
 12 23  4  0
 13 14  4  0
 15 17  4  0
 15 21  4  0
 15 24  4  0
 16 20  1  0
 16 24  1  0
 20 26  2  0
 21 23  4  0
 22 23  1  0
 24 25  4  0
M  END
$$$$

 Created by Python create_sdf_string function

 26 29  0  0  0  0  0  0  0  0999 V2000
   12.4818    9.0813   19.6160 C   0  0  0  0  0  0  0  0  0  0  0  0
   11.6446   11.0377   19.4927 C   0  0  0  0  0  0  0  0  0  0  0  0
    5.5447    4.1912   21.2610 C   0  0  0  0  0  0  0  0  0  0  0  0
   10.8624   11.6334   18.5255 C   0  0  0  0  0  0  0  0  0  0  0  0
   11.0638   11.4647   17.3530 O   0  0  0  0  0  0  0  0  0  0  0  0
   12.5392    4.9926   20.6908 C   0  0  0  0  0  0  0  0  0  0  0  0
    8.0418    5.2004   21.9823 C   0  0  0  0  0  0  0  0  0  0  0  0
   13.0171   10.1154   19.1160 O   0  0  0  0  0  0  0  0  0  0  0  0
    9.4956    5.6469   22.2809 C   0  0  0  0  0  0  0  0  0  0  0  0
    5.6331    5.1703   22.2549 C   0  0  0  0  0  0  0  0  0  0  0  0
   11.3089    9.8165   20.0989 C   0  0  0  0  0  0  0  0  0  0  0  0
   13.2974    5.5485   19.9545 N   0  0  0  0  0  0  0  0  0  0  0  0
    7.8522    4.2225   20.9858 C   0  0  0  0  0  0  0  0  0  0  0  0
    6.6564    3.7721   20.6744 C   0  0  0  0  0  0  0  0  0  0  0  0
   11.4178    7.0957   20.9157 C   0  0  0  0  0  0  0  0  0  0  0  0
    9.9658    8.2230   21.7476 N   0  0  0  0  0  0  0  0  0  0  0  0
   11.6236    5.7371   21.2101 C   0  0  0  0  0  0  0  0  0  0  0  0
   10.0148   12.3619   18.9857 O   0  0  0  0  0  0  0  0  0  0  0  0
    6.8636    5.6748   22.6034 C   0  0  0  0  0  0  0  0  0  0  0  0
    9.6019    6.9903   22.6397 C   0  0  0  0  0  0  0  0  0  0  0  0
   12.3183    7.6595   20.1240 C   0  0  0  0  0  0  0  0  0  0  0  0
   14.2609    7.1964   18.6092 O   0  0  0  0  0  0  0  0  0  0  0  0
   13.3316    6.8296   19.5348 C   0  0  0  0  0  0  0  0  0  0  0  0
    9.9240    9.0652   21.4030 C   0  0  0  0  0  0  0  0  0  0  0  0
   10.6016    9.2365   20.8290 C   0  0  0  0  0  0  0  0  0  0  0  0
    9.3452    7.1057   24.0005 O   0  0  0  0  0  0  0  0  0  0  0  0
  1  8  1  0
  1 11  4  0
  1 21  4  0
  2  4  1  0
  2  8  1  0
  2 11  1  0
  3 10  4  0
  3 14  4  0
  4  5  1  0
  4 18  2  0
  6 12  4  0
  6 17  4  0
  7  9  1  0
  7 13  4  0
  7 19  4  0
  9 20  1  0
 10 19  4  0
 11 25  4  0
 12 23  4  0
 13 14  4  0
 15 17  4  0
 15 21  4  0
 16 20  1  0
 16 24  4  0
 16 25  4  0
 20 26  2  0
 21 23  4  0
 22 23  1  0
 24 25  4  0
M  END
$$$$

 Created by Python create_sdf_string function

 26 30  0  0  0  0  0  0  0  0999 V2000
   12.7051    9.1155   19.4530 C   0  0  0  0  0  0  0  0  0  0  0  0
   11.5077   10.9278   19.6480 C   0  0  0  0  0  0  0  0  0  0  0  0
    5.7976    3.7178   21.5771 C   0  0  0  0  0  0  0  0  0  0  0  0
   10.6432   11.8207   18.7727 C   0  0  0  0  0  0  0  0  0  0  0  0
   11.0918   12.0907   17.6318 O   0  0  0  0  0  0  0  0  0  0  0  0
   12.6048    5.0564   20.6387 N   0  0  0  0  0  0  0  0  0  0  0  0
    8.0158    5.3402   21.8895 C   0  0  0  0  0  0  0  0  0  0  0  0
   12.7196   10.4069   18.9012 O   0  0  0  0  0  0  0  0  0  0  0  0
    9.0714    6.0904   21.8230 N   0  0  0  0  0  0  0  0  0  0  0  0
    5.6383    4.8714   22.2986 C   0  0  0  0  0  0  0  0  0  0  0  0
   11.1254    9.6792   20.2596 C   0  0  0  0  0  0  0  0  0  0  0  0
   12.9161    5.3611   19.8623 N   0  0  0  0  0  0  0  0  0  0  0  0
    8.0236    4.0978   21.1891 C   0  0  0  0  0  0  0  0  0  0  0  0
    6.9650    3.3661   21.0559 C   0  0  0  0  0  0  0  0  0  0  0  0
   11.7941    7.4352   20.8555 C   0  0  0  0  0  0  0  0  0  0  0  0
    9.8796    8.3508   21.8993 C   0  0  0  0  0  0  0  0  0  0  0  0
   11.9323    6.3241   21.5389 N   0  0  0  0  0  0  0  0  0  0  0  0
    9.6181   12.2543   19.1219 O   0  0  0  0  0  0  0  0  0  0  0  0
    6.7923    5.6768   22.4732 C   0  0  0  0  0  0  0  0  0  0  0  0
    9.3497    7.0586   22.7156 C   0  0  0  0  0  0  0  0  0  0  0  0
   12.6246    7.7441   19.9293 C   0  0  0  0  0  0  0  0  0  0  0  0
   14.5334    6.5900   18.9283 O   0  0  0  0  0  0  0  0  0  0  0  0
   13.3961    6.6209   19.5310 C   0  0  0  0  0  0  0  0  0  0  0  0
    9.6580    9.1553   21.5260 C   0  0  0  0  0  0  0  0  0  0  0  0
   10.7686    8.9342   20.8435 C   0  0  0  0  0  0  0  0  0  0  0  0
    9.2826    7.0557   23.8630 O   0  0  0  0  0  0  0  0  0  0  0  0
  1  8  1  0
  1 11  4  0
  1 21  4  0
  2  4  1  0
  2  8  1  0
  2 11  1  0
  3 10  4  0
  3 14  4  0
  4  5  1  0
  4 18  2  0
  6 12  4  0
  6 17  4  0
  7  9  1  0
  7 13  4  0
  7 19  4  0
  9 20  1  0
 10 19  4  0
 11 25  4  0
 12 23  4  0
 13 14  4  0
 15 17  4  0
 15 21  4  0
 15 25  4  0
 16 20  1  0
 16 24  4  0
 16 25  4  0
 20 26  2  0
 21 23  4  0
 22 23  1  0
 24 25  1  0
M  END
$$$$

 Created by Python create_sdf_string function

 26 28  0  0  0  0  0  0  0  0999 V2000
   12.4362    9.1110   19.5804 N   0  0  0  0  0  0  0  0  0  0  0  0
   11.4628   11.0122   19.2370 C   0  0  0  0  0  0  0  0  0  0  0  0
    5.8929    3.4722   21.5481 C   0  0  0  0  0  0  0  0  0  0  0  0
   10.5046   11.6832   18.2607 C   0  0  0  0  0  0  0  0  0  0  0  0
   10.9979   12.0433   17.1847 O   0  0  0  0  0  0  0  0  0  0  0  0
   12.5010    5.1630   20.9406 C   0  0  0  0  0  0  0  0  0  0  0  0
    7.9229    5.4008   21.5916 C   0  0  0  0  0  0  0  0  0  0  0  0
   12.7726   11.3391   18.9441 O   0  0  0  0  0  0  0  0  0  0  0  0
    8.8627    6.3090   21.4963 N   0  0  0  0  0  0  0  0  0  0  0  0
    5.6912    4.6783   22.2582 C   0  0  0  0  0  0  0  0  0  0  0  0
   11.2272    9.7835   20.0306 C   0  0  0  0  0  0  0  0  0  0  0  0
   13.1332    5.5105   20.0117 N   0  0  0  0  0  0  0  0  0  0  0  0
    8.0197    4.1543   20.9161 C   0  0  0  0  0  0  0  0  0  0  0  0
    7.0249    3.2548   20.8667 C   0  0  0  0  0  0  0  0  0  0  0  0
   11.5971    7.2933   20.9840 C   0  0  0  0  0  0  0  0  0  0  0  0
   10.2920    8.2468   21.5813 C   0  0  0  0  0  0  0  0  0  0  0  0
   11.6511    5.9827   21.6237 N   0  0  0  0  0  0  0  0  0  0  0  0
    9.3966   11.8232   18.5864 O   0  0  0  0  0  0  0  0  0  0  0  0
    6.7088    5.5546   22.2649 C   0  0  0  0  0  0  0  0  0  0  0  0
    9.2645    7.3115   22.2799 C   0  0  0  0  0  0  0  0  0  0  0  0
   12.3823    7.7536   20.1287 C   0  0  0  0  0  0  0  0  0  0  0  0
   14.2811    7.0427   18.8062 O   0  0  0  0  0  0  0  0  0  0  0  0
   13.3406    6.7928   19.6431 C   0  0  0  0  0  0  0  0  0  0  0  0
    9.5650    9.3926   22.4841 C   0  0  0  0  0  0  0  0  0  0  0  0
   10.5135    9.2934   20.9346 C   0  0  0  0  0  0  0  0  0  0  0  0
    8.9312    7.3630   23.4087 O   0  0  0  0  0  0  0  0  0  0  0  0
  1 11  4  0
  1 21  4  0
  2  4  1  0
  2  8  1  0
  2 11  1  0
  3 10  4  0
  3 14  4  0
  4  5  1  0
  4 18  2  0
  6 12  4  0
  6 17  4  0
  7  9  1  0
  7 13  4  0
  7 19  4  0
  9 20  1  0
 10 19  4  0
 11 25  4  0
 12 23  4  0
 13 14  4  0
 15 16  4  0
 15 17  4  0
 15 21  4  0
 16 20  1  0
 16 24  1  0
 16 25  4  0
 20 26  2  0
 21 23  4  0
 22 23  2  0
M  END
$$$$

 Created by Python create_sdf_string function

 26 28  0  0  0  0  0  0  0  0999 V2000
   12.5421    8.8554   19.7007 N   0  0  0  0  0  0  0  0  0  0  0  0
   11.7862   11.0208   19.2117 C   0  0  0  0  0  0  0  0  0  0  0  0
    6.0017    3.3037   21.8296 C   0  0  0  0  0  0  0  0  0  0  0  0
   10.7925   11.6812   18.1043 C   0  0  0  0  0  0  0  0  0  0  0  0
   11.3013   12.2553   17.0650 O   0  0  0  0  0  0  0  0  0  0  0  0
   12.4873    4.8984   20.9618 C   0  0  0  0  0  0  0  0  0  0  0  0
    7.9123    5.3935   21.6205 C   0  0  0  0  0  0  0  0  0  0  0  0
   13.0106   11.2912   18.8067 N   0  0  0  0  0  0  0  0  0  0  0  0
    8.8210    6.3929   21.4499 N   0  0  0  0  0  0  0  0  0  0  0  0
    5.6808    4.5656   22.2303 C   0  0  0  0  0  0  0  0  0  0  0  0
   11.6547    9.7149   19.8347 C   0  0  0  0  0  0  0  0  0  0  0  0
   13.2337    5.2065   20.0752 N   0  0  0  0  0  0  0  0  0  0  0  0
    8.1498    4.0911   21.1783 C   0  0  0  0  0  0  0  0  0  0  0  0
    7.2605    3.1423   21.2812 C   0  0  0  0  0  0  0  0  0  0  0  0
   11.6006    7.1210   20.9690 C   0  0  0  0  0  0  0  0  0  0  0  0
   10.7108    8.3477   21.3397 N   0  0  0  0  0  0  0  0  0  0  0  0
   11.5761    5.7668   21.5032 N   0  0  0  0  0  0  0  0  0  0  0  0
    9.6542   11.6217   18.3429 O   0  0  0  0  0  0  0  0  0  0  0  0
    6.6515    5.5639   22.1370 C   0  0  0  0  0  0  0  0  0  0  0  0
    8.9702    7.2653   22.4699 C   0  0  0  0  0  0  0  0  0  0  0  0
   12.4609    7.5062   20.1103 C   0  0  0  0  0  0  0  0  0  0  0  0
   14.1359    6.7813   18.5984 O   0  0  0  0  0  0  0  0  0  0  0  0
   13.3307    6.4622   19.5307 C   0  0  0  0  0  0  0  0  0  0  0  0
   10.1652    8.6231   22.5066 C   0  0  0  0  0  0  0  0  0  0  0  0
   10.5886    9.4066   20.5588 C   0  0  0  0  0  0  0  0  0  0  0  0
    8.5756    7.3841   23.4188 O   0  0  0  0  0  0  0  0  0  0  0  0
  1 11  4  0
  1 21  4  0
  2  4  1  0
  2  8  1  0
  2 11  1  0
  3 10  4  0
  3 14  4  0
  4  5  1  0
  4 18  2  0
  6 12  4  0
  6 17  4  0
  7  9  1  0
  7 13  4  0
  7 19  4  0
  9 20  1  0
 10 19  4  0
 11 25  4  0
 12 23  4  0
 13 14  4  0
 15 16  4  0
 15 17  4  0
 15 21  4  0
 16 24  1  0
 16 25  4  0
 20 24  1  0
 20 26  2  0
 21 23  4  0
 22 23  2  0
M  END
$$$$

 Created by Python create_sdf_string function

 26 28  0  0  0  0  0  0  0  0999 V2000
   12.6597    9.0175   19.6878 N   0  0  0  0  0  0  0  0  0  0  0  0
   11.8977   11.0528   19.0574 C   0  0  0  0  0  0  0  0  0  0  0  0
    5.8904    3.2244   21.6220 C   0  0  0  0  0  0  0  0  0  0  0  0
   10.7004   11.7271   18.2678 C   0  0  0  0  0  0  0  0  0  0  0  0
   11.1106   12.6119   17.3978 O   0  0  0  0  0  0  0  0  0  0  0  0
   12.3916    5.1322   20.7430 C   0  0  0  0  0  0  0  0  0  0  0  0
    7.7600    5.2357   21.6488 C   0  0  0  0  0  0  0  0  0  0  0  0
   13.0300   11.5808   19.0207 C   0  0  0  0  0  0  0  0  0  0  0  0
    8.8115    6.2818   21.5611 N   0  0  0  0  0  0  0  0  0  0  0  0
    5.5947    4.4299   22.1520 C   0  0  0  0  0  0  0  0  0  0  0  0
   11.7541    9.7934   19.8422 C   0  0  0  0  0  0  0  0  0  0  0  0
   13.2254    5.3976   19.8896 N   0  0  0  0  0  0  0  0  0  0  0  0
    8.0415    4.0047   21.1432 C   0  0  0  0  0  0  0  0  0  0  0  0
    7.1235    3.0595   21.1033 C   0  0  0  0  0  0  0  0  0  0  0  0
   11.7030    7.3495   20.8414 C   0  0  0  0  0  0  0  0  0  0  0  0
   10.8356    8.4170   21.2770 N   0  0  0  0  0  0  0  0  0  0  0  0
   11.6012    5.9995   21.2532 N   0  0  0  0  0  0  0  0  0  0  0  0
    9.5800   11.4526   18.3964 O   0  0  0  0  0  0  0  0  0  0  0  0
    6.5355    5.4475   22.1641 C   0  0  0  0  0  0  0  0  0  0  0  0
    8.9145    7.3120   22.3205 C   0  0  0  0  0  0  0  0  0  0  0  0
   12.6505    7.6737   19.9943 C   0  0  0  0  0  0  0  0  0  0  0  0
   14.2505    6.9226   18.4598 N   0  0  0  0  0  0  0  0  0  0  0  0
   13.4324    6.5853   19.4079 C   0  0  0  0  0  0  0  0  0  0  0  0
   10.0937    8.3642   22.4014 C   0  0  0  0  0  0  0  0  0  0  0  0
   10.7290    9.6304   20.6582 C   0  0  0  0  0  0  0  0  0  0  0  0
    8.1996    7.4646   23.2526 O   0  0  0  0  0  0  0  0  0  0  0  0
  1 11  4  0
  1 21  4  0
  2  4  1  0
  2  8  1  0
  2 11  1  0
  3 10  4  0
  3 14  4  0
  4  5  1  0
  4 18  2  0
  6 12  4  0
  6 17  4  0
  7  9  1  0
  7 13  4  0
  7 19  4  0
  9 20  1  0
 10 19  4  0
 11 25  4  0
 12 23  4  0
 13 14  4  0
 15 16  4  0
 15 17  4  0
 15 21  4  0
 16 24  1  0
 16 25  4  0
 20 24  1  0
 20 26  2  0
 21 23  4  0
 22 23  2  0
M  END
$$$$

 Created by Python create_sdf_string function

 26 27  0  0  0  0  0  0  0  0999 V2000
   12.7402    8.8983   19.3649 N   0  0  0  0  0  0  0  0  0  0  0  0
   12.1594   11.1143   18.9189 C   0  0  0  0  0  0  0  0  0  0  0  0
    6.2934    2.8414   21.2438 C   0  0  0  0  0  0  0  0  0  0  0  0
   10.9945   11.6637   18.0611 C   0  0  0  0  0  0  0  0  0  0  0  0
   11.2417   12.5559   17.1781 O   0  0  0  0  0  0  0  0  0  0  0  0
   12.6190    5.1489   21.0198 C   0  0  0  0  0  0  0  0  0  0  0  0
    7.8277    5.4122   21.7150 C   0  0  0  0  0  0  0  0  0  0  0  0
   13.3216   11.8127   18.7303 C   0  0  0  0  0  0  0  0  0  0  0  0
    8.9563    6.3156   21.6867 N   0  0  0  0  0  0  0  0  0  0  0  0
    5.6431    4.5881   22.0970 C   0  0  0  0  0  0  0  0  0  0  0  0
   12.0101    9.8968   19.6461 C   0  0  0  0  0  0  0  0  0  0  0  0
   13.3017    5.3553   19.9741 N   0  0  0  0  0  0  0  0  0  0  0  0
    7.9158    4.1930   20.9796 C   0  0  0  0  0  0  0  0  0  0  0  0
    6.9503    3.2671   21.0553 C   0  0  0  0  0  0  0  0  0  0  0  0
   11.7347    7.3293   20.9265 C   0  0  0  0  0  0  0  0  0  0  0  0
   10.9907    8.4690   21.1812 N   0  0  0  0  0  0  0  0  0  0  0  0
   11.8126    6.0718   21.5106 N   0  0  0  0  0  0  0  0  0  0  0  0
    9.8937   11.2621   18.2560 O   0  0  0  0  0  0  0  0  0  0  0  0
    6.5531    5.5022   22.2461 C   0  0  0  0  0  0  0  0  0  0  0  0
    8.9967    7.2957   22.5825 C   0  0  0  0  0  0  0  0  0  0  0  0
   12.6154    7.5824   19.9285 C   0  0  0  0  0  0  0  0  0  0  0  0
   14.0893    6.7731   18.3709 N   0  0  0  0  0  0  0  0  0  0  0  0
   13.4076    6.5456   19.3293 C   0  0  0  0  0  0  0  0  0  0  0  0
   10.0176    8.4147   22.3709 C   0  0  0  0  0  0  0  0  0  0  0  0
   11.0897    9.6669   20.6297 C   0  0  0  0  0  0  0  0  0  0  0  0
    8.3727    7.3908   23.5949 O   0  0  0  0  0  0  0  0  0  0  0  0
  1 11  4  0
  1 21  4  0
  2  4  1  0
  2  8  1  0
  2 11  1  0
  3 14  4  0
  4  5  1  0
  4 18  2  0
  6 12  4  0
  6 17  4  0
  7  9  1  0
  7 13  4  0
  7 19  4  0
  9 20  1  0
 10 19  4  0
 11 25  4  0
 12 23  4  0
 13 14  4  0
 15 16  4  0
 15 17  4  0
 15 21  4  0
 16 24  1  0
 16 25  4  0
 20 24  1  0
 20 26  2  0
 21 23  4  0
 22 23  2  0
M  END
$$$$

 Created by Python create_sdf_string function

 26 28  0  0  0  0  0  0  0  0999 V2000
   12.5268    8.8488   19.0990 N   0  0  0  0  0  0  0  0  0  0  0  0
   12.0770   11.2647   18.8899 C   0  0  0  0  0  0  0  0  0  0  0  0
    6.1964    3.1568   21.4864 C   0  0  0  0  0  0  0  0  0  0  0  0
   10.9377   11.6006   18.0210 C   0  0  0  0  0  0  0  0  0  0  0  0
   11.1797   12.3868   17.0786 O   0  0  0  0  0  0  0  0  0  0  0  0
   12.6135    5.2442   21.0528 C   0  0  0  0  0  0  0  0  0  0  0  0
    7.8453    5.3903   21.7736 C   0  0  0  0  0  0  0  0  0  0  0  0
   13.3689   11.5662   18.3961 C   0  0  0  0  0  0  0  0  0  0  0  0
    8.8309    6.3445   21.7188 N   0  0  0  0  0  0  0  0  0  0  0  0
    5.9187    4.0903   22.4022 C   0  0  0  0  0  0  0  0  0  0  0  0
   11.9168    9.9029   19.5073 C   0  0  0  0  0  0  0  0  0  0  0  0
   13.1370    5.2943   19.9529 N   0  0  0  0  0  0  0  0  0  0  0  0
    8.0632    4.4210   20.8238 C   0  0  0  0  0  0  0  0  0  0  0  0
    7.2907    3.2669   20.6877 C   0  0  0  0  0  0  0  0  0  0  0  0
   11.7363    7.4009   20.8792 C   0  0  0  0  0  0  0  0  0  0  0  0
   10.9042    8.5328   21.1527 C   0  0  0  0  0  0  0  0  0  0  0  0
   11.8771    6.1626   21.5837 N   0  0  0  0  0  0  0  0  0  0  0  0
    9.9102   11.1680   18.1514 O   0  0  0  0  0  0  0  0  0  0  0  0
    6.6964    5.1435   22.5218 C   0  0  0  0  0  0  0  0  0  0  0  0
    8.9990    7.3154   22.4898 C   0  0  0  0  0  0  0  0  0  0  0  0
   12.4746    7.5463   19.7130 C   0  0  0  0  0  0  0  0  0  0  0  0
   13.7422    6.5826   18.0175 N   0  0  0  0  0  0  0  0  0  0  0  0
   13.1904    6.4451   19.2148 C   0  0  0  0  0  0  0  0  0  0  0  0
    9.9653    8.4994   22.2469 C   0  0  0  0  0  0  0  0  0  0  0  0
   11.0419    9.7329   20.5859 C   0  0  0  0  0  0  0  0  0  0  0  0
    8.2470    7.3608   23.5166 O   0  0  0  0  0  0  0  0  0  0  0  0
  1 11  4  0
  1 21  4  0
  2  4  1  0
  2  8  1  0
  2 11  1  0
  3 10  4  0
  3 14  4  0
  4  5  1  0
  4 18  2  0
  6 12  4  0
  6 17  4  0
  7  9  1  0
  7 13  4  0
  7 19  4  0
  9 20  1  0
 10 19  4  0
 11 25  4  0
 12 23  4  0
 13 14  4  0
 15 16  4  0
 15 17  4  0
 15 21  4  0
 16 24  1  0
 16 25  4  0
 20 24  1  0
 20 26  2  0
 21 23  4  0
 22 23  1  0
M  END
$$$$

 Created by Python create_sdf_string function

 26 28  0  0  0  0  0  0  0  0999 V2000
   12.6619    8.7560   19.3177 N   0  0  0  0  0  0  0  0  0  0  0  0
   11.9985   11.1141   18.8745 N   0  0  0  0  0  0  0  0  0  0  0  0
    6.2206    3.2170   21.3171 C   0  0  0  0  0  0  0  0  0  0  0  0
   10.8059   11.4823   18.0040 C   0  0  0  0  0  0  0  0  0  0  0  0
   11.0003   12.3297   17.1156 O   0  0  0  0  0  0  0  0  0  0  0  0
   12.6978    5.1961   21.3525 C   0  0  0  0  0  0  0  0  0  0  0  0
    8.0398    5.3176   21.7352 C   0  0  0  0  0  0  0  0  0  0  0  0
   13.2217   11.3671   18.2367 C   0  0  0  0  0  0  0  0  0  0  0  0
    8.9521    6.2224   21.7137 N   0  0  0  0  0  0  0  0  0  0  0  0
    5.9096    4.2066   22.1819 C   0  0  0  0  0  0  0  0  0  0  0  0
   11.8641    9.7567   19.5103 C   0  0  0  0  0  0  0  0  0  0  0  0
   13.2781    5.2505   20.2296 N   0  0  0  0  0  0  0  0  0  0  0  0
    8.3516    4.2585   20.9260 C   0  0  0  0  0  0  0  0  0  0  0  0
    7.4570    3.2044   20.7126 C   0  0  0  0  0  0  0  0  0  0  0  0
   11.7197    7.3167   21.0175 C   0  0  0  0  0  0  0  0  0  0  0  0
   10.8417    8.4484   21.1576 N   0  0  0  0  0  0  0  0  0  0  0  0
   11.8850    6.1474   21.7999 N   0  0  0  0  0  0  0  0  0  0  0  0
    9.7592   10.9340   18.1027 O   0  0  0  0  0  0  0  0  0  0  0  0
    6.7866    5.2340   22.3826 C   0  0  0  0  0  0  0  0  0  0  0  0
    8.9749    7.3153   22.4073 C   0  0  0  0  0  0  0  0  0  0  0  0
   12.5637    7.5074   19.9591 C   0  0  0  0  0  0  0  0  0  0  0  0
   13.8944    6.5418   18.3468 N   0  0  0  0  0  0  0  0  0  0  0  0
   13.3013    6.4033   19.4594 C   0  0  0  0  0  0  0  0  0  0  0  0
    9.8805    8.4818   22.1975 C   0  0  0  0  0  0  0  0  0  0  0  0
   10.8771    9.5333   20.4079 C   0  0  0  0  0  0  0  0  0  0  0  0
    8.1787    7.4177   23.4074 O   0  0  0  0  0  0  0  0  0  0  0  0
  1 11  4  0
  1 21  4  0
  2  4  1  0
  2  8  1  0
  2 11  1  0
  3 10  4  0
  3 14  4  0
  4  5  1  0
  4 18  2  0
  6 12  4  0
  6 17  4  0
  7  9  1  0
  7 13  4  0
  7 19  4  0
  9 20  1  0
 10 19  4  0
 11 25  4  0
 12 23  4  0
 13 14  4  0
 15 16  4  0
 15 17  4  0
 15 21  4  0
 16 24  1  0
 16 25  4  0
 20 24  1  0
 20 26  2  0
 21 23  4  0
 22 23  1  0
M  END
$$$$

 Created by Python create_sdf_string function

 26 28  0  0  0  0  0  0  0  0999 V2000
   12.6196    8.8729   19.4912 N   0  0  0  0  0  0  0  0  0  0  0  0
   11.8829   10.9151   18.8074 N   0  0  0  0  0  0  0  0  0  0  0  0
    6.3114    3.1684   21.2674 C   0  0  0  0  0  0  0  0  0  0  0  0
   10.8850   11.5038   18.0485 N   0  0  0  0  0  0  0  0  0  0  0  0
   11.0975   12.1922   16.8896 O   0  0  0  0  0  0  0  0  0  0  0  0
   12.8043    5.5601   20.7938 C   0  0  0  0  0  0  0  0  0  0  0  0
    7.9617    5.3874   21.6684 C   0  0  0  0  0  0  0  0  0  0  0  0
   13.0960   11.4964   18.5818 C   0  0  0  0  0  0  0  0  0  0  0  0
    8.8119    6.3428   21.7213 N   0  0  0  0  0  0  0  0  0  0  0  0
    5.8778    4.1644   22.0409 C   0  0  0  0  0  0  0  0  0  0  0  0
   11.7539    9.7981   19.6863 C   0  0  0  0  0  0  0  0  0  0  0  0
   13.4387    4.4721   20.9086 N   0  0  0  0  0  0  0  0  0  0  0  0
    8.3264    4.2498   20.9219 C   0  0  0  0  0  0  0  0  0  0  0  0
    7.5090    3.1904   20.7193 C   0  0  0  0  0  0  0  0  0  0  0  0
   11.5447    7.4226   20.9882 C   0  0  0  0  0  0  0  0  0  0  0  0
   10.5965    8.4699   21.3490 C   0  0  0  0  0  0  0  0  0  0  0  0
   11.7003    6.1559   21.4456 N   0  0  0  0  0  0  0  0  0  0  0  0
    9.7009   11.3352   18.4310 O   0  0  0  0  0  0  0  0  0  0  0  0
    6.6470    5.2439   22.2139 C   0  0  0  0  0  0  0  0  0  0  0  0
    8.7815    7.3716   22.6084 C   0  0  0  0  0  0  0  0  0  0  0  0
   12.4852    7.7101   20.0482 C   0  0  0  0  0  0  0  0  0  0  0  0
   13.9744    6.3827   18.7533 N   0  0  0  0  0  0  0  0  0  0  0  0
   13.1979    6.5662   19.8097 C   0  0  0  0  0  0  0  0  0  0  0  0
    9.6843    8.5037   22.3868 N   0  0  0  0  0  0  0  0  0  0  0  0
   10.6877    9.6188   20.6711 C   0  0  0  0  0  0  0  0  0  0  0  0
    7.9828    7.4274   23.5790 O   0  0  0  0  0  0  0  0  0  0  0  0
  1 11  4  0
  1 21  4  0
  2  4  1  0
  2  8  1  0
  2 11  1  0
  3 10  4  0
  3 14  4  0
  4  5  1  0
  4 18  2  0
  6 12  1  0
  6 17  4  0
  6 23  4  0
  7  9  1  0
  7 13  4  0
  7 19  4  0
  9 20  1  0
 10 19  4  0
 11 25  4  0
 13 14  4  0
 15 16  4  0
 15 17  4  0
 15 21  4  0
 16 24  1  0
 16 25  4  0
 20 24  1  0
 20 26  2  0
 21 23  4  0
 22 23  1  0
M  END
$$$$

 Created by Python create_sdf_string function

 26 28  0  0  0  0  0  0  0  0999 V2000
   12.5850    8.7852   19.5389 N   0  0  0  0  0  0  0  0  0  0  0  0
   11.8859   10.9833   19.0074 N   0  0  0  0  0  0  0  0  0  0  0  0
    5.8891    3.2789   21.0775 C   0  0  0  0  0  0  0  0  0  0  0  0
   10.8279   11.5912   18.2747 C   0  0  0  0  0  0  0  0  0  0  0  0
   11.0999   11.9734   16.9846 C   0  0  0  0  0  0  0  0  0  0  0  0
   12.8673    5.4930   20.8900 C   0  0  0  0  0  0  0  0  0  0  0  0
    7.7954    5.2266   21.7575 C   0  0  0  0  0  0  0  0  0  0  0  0
   13.2032   11.3129   18.5486 C   0  0  0  0  0  0  0  0  0  0  0  0
    8.7710    6.0787   21.8837 N   0  0  0  0  0  0  0  0  0  0  0  0
    5.5351    4.2367   21.9121 C   0  0  0  0  0  0  0  0  0  0  0  0
   11.7000    9.7715   19.7601 C   0  0  0  0  0  0  0  0  0  0  0  0
   13.4855    4.3286   21.1775 N   0  0  0  0  0  0  0  0  0  0  0  0
    8.0901    4.1860   20.9303 C   0  0  0  0  0  0  0  0  0  0  0  0
    7.1580    3.2068   20.5397 C   0  0  0  0  0  0  0  0  0  0  0  0
   11.6073    7.3506   21.0979 C   0  0  0  0  0  0  0  0  0  0  0  0
   10.6467    8.3020   21.3765 C   0  0  0  0  0  0  0  0  0  0  0  0
   11.8378    6.0569   21.6082 N   0  0  0  0  0  0  0  0  0  0  0  0
    9.8651   11.7846   18.7823 O   0  0  0  0  0  0  0  0  0  0  0  0
    6.4634    5.2157   22.2997 C   0  0  0  0  0  0  0  0  0  0  0  0
    8.7477    7.2077   22.5951 C   0  0  0  0  0  0  0  0  0  0  0  0
   12.5474    7.5933   20.1494 C   0  0  0  0  0  0  0  0  0  0  0  0
   14.1999    6.3206   18.9834 C   0  0  0  0  0  0  0  0  0  0  0  0
   13.3114    6.4974   19.9241 C   0  0  0  0  0  0  0  0  0  0  0  0
    9.6851    8.2050   22.3684 N   0  0  0  0  0  0  0  0  0  0  0  0
   10.6932    9.4909   20.6566 C   0  0  0  0  0  0  0  0  0  0  0  0
    7.9509    7.3372   23.6222 O   0  0  0  0  0  0  0  0  0  0  0  0
  1 11  4  0
  1 21  4  0
  2  4  1  0
  2  8  1  0
  2 11  1  0
  3 10  4  0
  3 14  4  0
  4  5  1  0
  4 18  2  0
  6 12  1  0
  6 17  4  0
  6 23  4  0
  7  9  1  0
  7 13  4  0
  7 19  4  0
  9 20  1  0
 10 19  4  0
 11 25  4  0
 13 14  4  0
 15 16  4  0
 15 17  4  0
 15 21  4  0
 16 24  1  0
 16 25  4  0
 20 24  1  0
 20 26  2  0
 21 23  4  0
 22 23  1  0
M  END
$$$$

 Created by Python create_sdf_string function

 26 28  0  0  0  0  0  0  0  0999 V2000
   12.5806    8.7860   19.5555 N   0  0  0  0  0  0  0  0  0  0  0  0
   11.7861   10.9009   19.0100 N   0  0  0  0  0  0  0  0  0  0  0  0
    5.9543    3.3617   21.1547 C   0  0  0  0  0  0  0  0  0  0  0  0
   10.7454   11.6205   18.3659 C   0  0  0  0  0  0  0  0  0  0  0  0
   11.0586   11.9747   17.0080 C   0  0  0  0  0  0  0  0  0  0  0  0
   12.8044    5.4366   20.8130 C   0  0  0  0  0  0  0  0  0  0  0  0
    7.9012    5.2672   21.7336 C   0  0  0  0  0  0  0  0  0  0  0  0
   13.1526   11.5470   18.7212 C   0  0  0  0  0  0  0  0  0  0  0  0
    8.9149    6.1410   21.9637 N   0  0  0  0  0  0  0  0  0  0  0  0
    5.6374    4.4070   21.9336 C   0  0  0  0  0  0  0  0  0  0  0  0
   11.6997    9.7540   19.7770 C   0  0  0  0  0  0  0  0  0  0  0  0
   13.4447    4.3540   21.1312 N   0  0  0  0  0  0  0  0  0  0  0  0
    8.1833    4.1570   20.9617 C   0  0  0  0  0  0  0  0  0  0  0  0
    7.2113    3.2298   20.6553 C   0  0  0  0  0  0  0  0  0  0  0  0
   11.5611    7.2836   21.0271 C   0  0  0  0  0  0  0  0  0  0  0  0
   10.7166    8.3231   21.4351 C   0  0  0  0  0  0  0  0  0  0  0  0
   11.6534    5.9170   21.3915 N   0  0  0  0  0  0  0  0  0  0  0  0
    9.8038   11.9146   18.9197 O   0  0  0  0  0  0  0  0  0  0  0  0
    6.5763    5.3807   22.2044 C   0  0  0  0  0  0  0  0  0  0  0  0
    8.9094    7.2015   22.7543 C   0  0  0  0  0  0  0  0  0  0  0  0
   12.5434    7.5735   20.1282 C   0  0  0  0  0  0  0  0  0  0  0  0
   14.3658    6.2793   19.1556 O   0  0  0  0  0  0  0  0  0  0  0  0
   13.3177    6.4539   19.9405 C   0  0  0  0  0  0  0  0  0  0  0  0
    9.9290    8.1715   22.5770 N   0  0  0  0  0  0  0  0  0  0  0  0
   10.7476    9.5431   20.7488 C   0  0  0  0  0  0  0  0  0  0  0  0
    8.1013    7.4167   23.7138 O   0  0  0  0  0  0  0  0  0  0  0  0
  1 11  4  0
  1 21  4  0
  2  4  1  0
  2  8  1  0
  2 11  1  0
  3 10  4  0
  3 14  4  0
  4  5  1  0
  4 18  2  0
  6 12  1  0
  6 17  4  0
  6 23  4  0
  7  9  1  0
  7 13  4  0
  7 19  4  0
  9 20  1  0
 10 19  4  0
 11 25  4  0
 13 14  4  0
 15 16  4  0
 15 17  4  0
 15 21  4  0
 16 24  1  0
 16 25  4  0
 20 24  1  0
 20 26  2  0
 21 23  4  0
 22 23  1  0
M  END
$$$$

 Created by Python create_sdf_string function

 26 28  0  0  0  0  0  0  0  0999 V2000
   12.7841    8.7682   19.6658 N   0  0  0  0  0  0  0  0  0  0  0  0
   11.9688   10.8845   19.1977 N   0  0  0  0  0  0  0  0  0  0  0  0
    5.8970    3.4040   21.0134 C   0  0  0  0  0  0  0  0  0  0  0  0
   10.8411   11.6412   18.6722 C   0  0  0  0  0  0  0  0  0  0  0  0
   10.9871   11.9178   17.2883 C   0  0  0  0  0  0  0  0  0  0  0  0
   12.7181    5.4358   20.8570 C   0  0  0  0  0  0  0  0  0  0  0  0
    7.8260    5.2301   21.8181 C   0  0  0  0  0  0  0  0  0  0  0  0
   13.2695   11.3811   18.7540 C   0  0  0  0  0  0  0  0  0  0  0  0
    8.8182    6.0604   22.0376 N   0  0  0  0  0  0  0  0  0  0  0  0
    5.5399    4.4628   21.7759 C   0  0  0  0  0  0  0  0  0  0  0  0
   11.8462    9.6923   19.9011 C   0  0  0  0  0  0  0  0  0  0  0  0
   13.1574    4.1946   20.9879 N   0  0  0  0  0  0  0  0  0  0  0  0
    8.1585    4.1213   21.0494 C   0  0  0  0  0  0  0  0  0  0  0  0
    7.1814    3.1934   20.6154 C   0  0  0  0  0  0  0  0  0  0  0  0
   11.6276    7.3285   21.1088 C   0  0  0  0  0  0  0  0  0  0  0  0
   10.8077    8.3365   21.5256 C   0  0  0  0  0  0  0  0  0  0  0  0
   11.6665    6.0092   21.5402 N   0  0  0  0  0  0  0  0  0  0  0  0
    9.8931   11.9443   19.2915 O   0  0  0  0  0  0  0  0  0  0  0  0
    6.5020    5.3405   22.1872 C   0  0  0  0  0  0  0  0  0  0  0  0
    8.8815    7.1942   22.7187 C   0  0  0  0  0  0  0  0  0  0  0  0
   12.6512    7.5478   20.1848 C   0  0  0  0  0  0  0  0  0  0  0  0
   14.3050    6.1477   19.2216 O   0  0  0  0  0  0  0  0  0  0  0  0
   13.3262    6.3903   19.9552 C   0  0  0  0  0  0  0  0  0  0  0  0
    9.8959    8.1993   22.5424 N   0  0  0  0  0  0  0  0  0  0  0  0
   10.8881    9.5121   20.8640 C   0  0  0  0  0  0  0  0  0  0  0  0
    7.9499    7.4432   23.8184 S   0  0  0  0  0  0  0  0  0  0  0  0
  1 11  4  0
  1 21  4  0
  2  4  1  0
  2  8  1  0
  2 11  1  0
  3 10  4  0
  3 14  4  0
  4  5  1  0
  4 18  2  0
  6 12  1  0
  6 17  4  0
  6 23  4  0
  7  9  1  0
  7 13  4  0
  7 19  4  0
  9 20  1  0
 10 19  4  0
 11 25  4  0
 13 14  4  0
 15 16  4  0
 15 17  4  0
 15 21  4  0
 16 24  1  0
 16 25  4  0
 20 24  1  0
 20 26  2  0
 21 23  4  0
 22 23  1  0
M  END
$$$$

 Created by Python create_sdf_string function

 26 28  0  0  0  0  0  0  0  0999 V2000
   12.6458    8.6943   19.5457 N   0  0  0  0  0  0  0  0  0  0  0  0
   11.8266   10.7932   19.0476 N   0  0  0  0  0  0  0  0  0  0  0  0
    6.1097    3.2004   20.9883 C   0  0  0  0  0  0  0  0  0  0  0  0
   10.7280   11.6198   18.6945 C   0  0  0  0  0  0  0  0  0  0  0  0
   10.7377   12.0723   17.3284 C   0  0  0  0  0  0  0  0  0  0  0  0
   12.7269    5.3798   20.7915 C   0  0  0  0  0  0  0  0  0  0  0  0
    7.9242    5.1615   21.8507 C   0  0  0  0  0  0  0  0  0  0  0  0
   13.1022   11.2907   18.4772 C   0  0  0  0  0  0  0  0  0  0  0  0
    8.8969    6.0416   22.0839 N   0  0  0  0  0  0  0  0  0  0  0  0
    5.6420    4.1950   21.7509 C   0  0  0  0  0  0  0  0  0  0  0  0
   11.7079    9.6190   19.8152 C   0  0  0  0  0  0  0  0  0  0  0  0
   13.1270    4.0970   20.9880 N   0  0  0  0  0  0  0  0  0  0  0  0
    8.2861    4.0648   21.1030 C   0  0  0  0  0  0  0  0  0  0  0  0
    7.4053    3.1211   20.6381 C   0  0  0  0  0  0  0  0  0  0  0  0
   11.5887    7.2689   21.0896 C   0  0  0  0  0  0  0  0  0  0  0  0
   10.6671    8.2722   21.4236 N   0  0  0  0  0  0  0  0  0  0  0  0
   11.6753    5.9921   21.4890 N   0  0  0  0  0  0  0  0  0  0  0  0
    9.9269   11.9597   19.4234 O   0  0  0  0  0  0  0  0  0  0  0  0
    6.5305    5.1657   22.2102 C   0  0  0  0  0  0  0  0  0  0  0  0
    8.7207    7.2131   22.7222 C   0  0  0  0  0  0  0  0  0  0  0  0
   12.5898    7.5286   20.1559 C   0  0  0  0  0  0  0  0  0  0  0  0
   14.2607    6.1950   19.0962 O   0  0  0  0  0  0  0  0  0  0  0  0
   13.3559    6.3748   19.9334 C   0  0  0  0  0  0  0  0  0  0  0  0
    9.6694    8.1741   22.4642 N   0  0  0  0  0  0  0  0  0  0  0  0
   10.7273    9.4552   20.7585 C   0  0  0  0  0  0  0  0  0  0  0  0
    7.6642    7.5357   23.6133 S   0  0  0  0  0  0  0  0  0  0  0  0
  1 11  4  0
  1 21  4  0
  2  4  1  0
  2  8  1  0
  2 11  1  0
  3 10  4  0
  3 14  4  0
  4  5  1  0
  4 18  2  0
  6 12  1  0
  6 17  4  0
  6 23  4  0
  7  9  1  0
  7 13  4  0
  7 19  4  0
  9 20  1  0
 10 19  4  0
 11 25  4  0
 13 14  4  0
 15 16  4  0
 15 17  4  0
 15 21  4  0
 16 24  1  0
 16 25  4  0
 20 24  1  0
 20 26  2  0
 21 23  4  0
 22 23  1  0
M  END
$$$$

 Created by Python create_sdf_string function

 26 28  0  0  0  0  0  0  0  0999 V2000
   12.5896    8.8543   19.6210 N   0  0  0  0  0  0  0  0  0  0  0  0
   11.9089   11.0230   19.1391 N   0  0  0  0  0  0  0  0  0  0  0  0
    5.8366    3.2526   20.9424 C   0  0  0  0  0  0  0  0  0  0  0  0
   10.7001   11.6592   18.6860 C   0  0  0  0  0  0  0  0  0  0  0  0
   10.7040   11.9961   17.3171 C   0  0  0  0  0  0  0  0  0  0  0  0
   12.5801    5.4570   20.7146 C   0  0  0  0  0  0  0  0  0  0  0  0
    7.7625    5.0946   21.8161 C   0  0  0  0  0  0  0  0  0  0  0  0
   13.0543   11.2588   18.4353 C   0  0  0  0  0  0  0  0  0  0  0  0
    8.7909    5.9578   22.1092 N   0  0  0  0  0  0  0  0  0  0  0  0
    5.4623    4.3477   21.6669 C   0  0  0  0  0  0  0  0  0  0  0  0
   11.7530    9.8037   19.9315 C   0  0  0  0  0  0  0  0  0  0  0  0
   13.0549    4.2216   20.8935 N   0  0  0  0  0  0  0  0  0  0  0  0
    8.0982    3.9443   21.1151 C   0  0  0  0  0  0  0  0  0  0  0  0
    7.1420    3.0928   20.6169 C   0  0  0  0  0  0  0  0  0  0  0  0
   11.4672    7.3673   21.0994 C   0  0  0  0  0  0  0  0  0  0  0  0
   10.6575    8.3814   21.5022 N   0  0  0  0  0  0  0  0  0  0  0  0
   11.5100    6.0380   21.4283 N   0  0  0  0  0  0  0  0  0  0  0  0
    9.7986   11.9084   19.3854 O   0  0  0  0  0  0  0  0  0  0  0  0
    6.4301    5.2524   22.0573 C   0  0  0  0  0  0  0  0  0  0  0  0
    8.7062    7.1691   22.6583 C   0  0  0  0  0  0  0  0  0  0  0  0
   12.4582    7.6168   20.1688 C   0  0  0  0  0  0  0  0  0  0  0  0
   14.1017    6.3174   19.0272 O   0  0  0  0  0  0  0  0  0  0  0  0
   13.1769    6.4511   19.8705 C   0  0  0  0  0  0  0  0  0  0  0  0
    9.7024    8.1733   22.5193 N   0  0  0  0  0  0  0  0  0  0  0  0
   10.7724    9.6140   20.8942 C   0  0  0  0  0  0  0  0  0  0  0  0
    7.6650    7.5303   23.5731 S   0  0  0  0  0  0  0  0  0  0  0  0
  1 11  4  0
  1 21  4  0
  2  4  1  0
  2  8  1  0
  2 11  1  0
  3 10  4  0
  3 14  4  0
  4  5  1  0
  4 18  2  0
  6 12  1  0
  6 17  4  0
  6 23  4  0
  7  9  1  0
  7 13  4  0
  7 19  4  0
  9 20  1  0
 10 19  4  0
 11 25  4  0
 13 14  4  0
 15 16  4  0
 15 17  4  0
 15 21  4  0
 16 24  1  0
 16 25  4  0
 20 24  1  0
 20 26  2  0
 21 23  4  0
 22 23  1  0
M  END
$$$$

 Created by Python create_sdf_string function

 26 28  0  0  0  0  0  0  0  0999 V2000
   12.6453    8.7762   19.5905 N   0  0  0  0  0  0  0  0  0  0  0  0
   11.7566   10.8783   19.0966 N   0  0  0  0  0  0  0  0  0  0  0  0
    5.9417    3.1205   21.0046 C   0  0  0  0  0  0  0  0  0  0  0  0
   10.6437   11.6848   18.7391 C   0  0  0  0  0  0  0  0  0  0  0  0
   10.6838   12.1689   17.4021 C   0  0  0  0  0  0  0  0  0  0  0  0
   12.5997    5.4297   20.7594 C   0  0  0  0  0  0  0  0  0  0  0  0
    7.7554    5.1017   21.7913 C   0  0  0  0  0  0  0  0  0  0  0  0
   13.0397   11.1779   18.3790 C   0  0  0  0  0  0  0  0  0  0  0  0
    8.7077    5.9861   22.0688 N   0  0  0  0  0  0  0  0  0  0  0  0
    5.5106    4.2121   21.6220 C   0  0  0  0  0  0  0  0  0  0  0  0
   11.6898    9.6998   19.8687 C   0  0  0  0  0  0  0  0  0  0  0  0
   12.9914    4.1630   20.9488 N   0  0  0  0  0  0  0  0  0  0  0  0
    8.1976    3.9372   21.1962 C   0  0  0  0  0  0  0  0  0  0  0  0
    7.2791    2.9958   20.7647 C   0  0  0  0  0  0  0  0  0  0  0  0
   11.5142    7.2874   21.0202 C   0  0  0  0  0  0  0  0  0  0  0  0
   10.6531    8.2651   21.4592 N   0  0  0  0  0  0  0  0  0  0  0  0
   11.5095    5.9848   21.4094 N   0  0  0  0  0  0  0  0  0  0  0  0
    9.7805   11.9212   19.4743 O   0  0  0  0  0  0  0  0  0  0  0  0
    6.3932    5.2147   21.9922 C   0  0  0  0  0  0  0  0  0  0  0  0
    8.6275    7.1604   22.6960 C   0  0  0  0  0  0  0  0  0  0  0  0
   12.5084    7.5456   20.1113 C   0  0  0  0  0  0  0  0  0  0  0  0
   14.2663    6.2280   19.2503 O   0  0  0  0  0  0  0  0  0  0  0  0
   13.2453    6.3810   19.9044 N   0  0  0  0  0  0  0  0  0  0  0  0
    9.6886    8.1203   22.5112 N   0  0  0  0  0  0  0  0  0  0  0  0
   10.7176    9.4863   20.8166 C   0  0  0  0  0  0  0  0  0  0  0  0
    7.6339    7.4868   23.6524 S   0  0  0  0  0  0  0  0  0  0  0  0
  1 11  4  0
  1 21  4  0
  2  4  1  0
  2  8  1  0
  2 11  1  0
  3 10  4  0
  3 14  4  0
  4  5  1  0
  4 18  2  0
  6 12  1  0
  6 17  4  0
  6 23  4  0
  7  9  1  0
  7 13  4  0
  7 19  4  0
  9 20  1  0
 10 19  4  0
 11 25  4  0
 13 14  4  0
 15 16  4  0
 15 17  4  0
 15 21  4  0
 16 24  1  0
 16 25  4  0
 20 24  1  0
 20 26  2  0
 21 23  4  0
 22 23  1  0
M  END
$$$$

 Created by Python create_sdf_string function

 26 28  0  0  0  0  0  0  0  0999 V2000
   12.4997    8.6546   19.5396 N   0  0  0  0  0  0  0  0  0  0  0  0
   11.8309   10.8448   19.0984 N   0  0  0  0  0  0  0  0  0  0  0  0
    6.0227    3.0781   20.9917 C   0  0  0  0  0  0  0  0  0  0  0  0
   10.6728   11.6008   18.6932 C   0  0  0  0  0  0  0  0  0  0  0  0
   10.6399   12.0023   17.4115 C   0  0  0  0  0  0  0  0  0  0  0  0
   12.5355    5.3555   20.8100 C   0  0  0  0  0  0  0  0  0  0  0  0
    7.7207    5.0631   21.9429 C   0  0  0  0  0  0  0  0  0  0  0  0
   13.1076   11.1701   18.4884 C   0  0  0  0  0  0  0  0  0  0  0  0
    8.7540    6.0116   22.1883 N   0  0  0  0  0  0  0  0  0  0  0  0
    5.5102    4.0953   21.6445 C   0  0  0  0  0  0  0  0  0  0  0  0
   11.6395    9.6755   19.8594 C   0  0  0  0  0  0  0  0  0  0  0  0
   12.9191    4.0447   20.9249 N   0  0  0  0  0  0  0  0  0  0  0  0
    8.2170    3.9373   21.3214 C   0  0  0  0  0  0  0  0  0  0  0  0
    7.3782    2.9885   20.8453 C   0  0  0  0  0  0  0  0  0  0  0  0
   11.4252    7.2692   21.0905 C   0  0  0  0  0  0  0  0  0  0  0  0
   10.6042    8.3051   21.3839 C   0  0  0  0  0  0  0  0  0  0  0  0
   11.4877    5.9744   21.5062 N   0  0  0  0  0  0  0  0  0  0  0  0
    9.7392   11.8493   19.4129 O   0  0  0  0  0  0  0  0  0  0  0  0
    6.2806    5.1016   22.1422 C   0  0  0  0  0  0  0  0  0  0  0  0
    8.6929    7.1535   22.6781 C   0  0  0  0  0  0  0  0  0  0  0  0
   12.4070    7.4750   20.1452 C   0  0  0  0  0  0  0  0  0  0  0  0
   14.0611    5.9947   19.1437 O   0  0  0  0  0  0  0  0  0  0  0  0
   13.1108    6.2998   19.9795 N   0  0  0  0  0  0  0  0  0  0  0  0
    9.6010    8.1674   22.4358 N   0  0  0  0  0  0  0  0  0  0  0  0
   10.6826    9.4827   20.7775 C   0  0  0  0  0  0  0  0  0  0  0  0
    7.5732    7.4060   23.6742 S   0  0  0  0  0  0  0  0  0  0  0  0
  1 11  4  0
  1 21  4  0
  2  4  1  0
  2  8  1  0
  2 11  1  0
  3 10  4  0
  3 14  4  0
  4  5  1  0
  4 18  2  0
  6 12  1  0
  6 17  4  0
  6 23  4  0
  7  9  1  0
  7 13  4  0
  7 19  4  0
  9 20  1  0
 10 19  4  0
 11 25  4  0
 13 14  4  0
 15 16  4  0
 15 17  4  0
 15 21  4  0
 16 24  1  0
 16 25  4  0
 20 24  1  0
 20 26  2  0
 21 23  4  0
 22 23  1  0
M  END
$$$$

 Created by Python create_sdf_string function

 26 28  0  0  0  0  0  0  0  0999 V2000
   12.5677    8.5713   19.6075 N   0  0  0  0  0  0  0  0  0  0  0  0
   11.8463   10.7280   18.9828 N   0  0  0  0  0  0  0  0  0  0  0  0
    5.9744    3.1103   20.9631 C   0  0  0  0  0  0  0  0  0  0  0  0
   10.6720   11.5650   18.7640 C   0  0  0  0  0  0  0  0  0  0  0  0
   10.5780   12.1078   17.5488 C   0  0  0  0  0  0  0  0  0  0  0  0
   12.4589    5.2976   20.9217 C   0  0  0  0  0  0  0  0  0  0  0  0
    7.7550    5.0241   21.9137 C   0  0  0  0  0  0  0  0  0  0  0  0
   13.0818   11.0962   18.4472 C   0  0  0  0  0  0  0  0  0  0  0  0
    8.6722    6.0825   22.1607 N   0  0  0  0  0  0  0  0  0  0  0  0
    5.5089    4.1036   21.7698 C   0  0  0  0  0  0  0  0  0  0  0  0
   11.7368    9.5869   19.8225 C   0  0  0  0  0  0  0  0  0  0  0  0
   12.9475    4.0426   20.9925 N   0  0  0  0  0  0  0  0  0  0  0  0
    8.2167    3.9427   21.2420 C   0  0  0  0  0  0  0  0  0  0  0  0
    7.3427    3.0002   20.7106 C   0  0  0  0  0  0  0  0  0  0  0  0
   11.4149    7.2535   21.1888 C   0  0  0  0  0  0  0  0  0  0  0  0
   10.6313    8.3390   21.5035 N   0  0  0  0  0  0  0  0  0  0  0  0
   11.4388    5.9135   21.6456 N   0  0  0  0  0  0  0  0  0  0  0  0
    9.8092   11.7601   19.5723 O   0  0  0  0  0  0  0  0  0  0  0  0
    6.3646    5.0399   22.2134 C   0  0  0  0  0  0  0  0  0  0  0  0
    8.6580    7.1892   22.7061 C   0  0  0  0  0  0  0  0  0  0  0  0
   12.3830    7.4407   20.2345 C   0  0  0  0  0  0  0  0  0  0  0  0
   13.9955    5.9783   19.1336 C   0  0  0  0  0  0  0  0  0  0  0  0
   13.0096    6.2346   20.0329 N   0  0  0  0  0  0  0  0  0  0  0  0
    9.6170    8.2339   22.4862 N   0  0  0  0  0  0  0  0  0  0  0  0
   10.8022    9.4743   20.8648 C   0  0  0  0  0  0  0  0  0  0  0  0
    7.6780    7.3598   23.7938 O   0  0  0  0  0  0  0  0  0  0  0  0
  1 11  4  0
  1 21  4  0
  2  4  1  0
  2  8  1  0
  2 11  1  0
  3 10  4  0
  3 14  4  0
  4  5  1  0
  4 18  2  0
  6 12  1  0
  6 17  4  0
  6 23  4  0
  7  9  1  0
  7 13  4  0
  7 19  4  0
  9 20  1  0
 10 19  4  0
 11 25  4  0
 13 14  4  0
 15 16  4  0
 15 17  4  0
 15 21  4  0
 16 24  1  0
 16 25  4  0
 20 24  1  0
 20 26  2  0
 21 23  4  0
 22 23  1  0
M  END
$$$$

 Created by Python create_sdf_string function

 26 28  0  0  0  0  0  0  0  0999 V2000
   12.5939    8.5645   19.6989 N   0  0  0  0  0  0  0  0  0  0  0  0
   11.8221   10.6777   19.0144 N   0  0  0  0  0  0  0  0  0  0  0  0
    6.0427    3.0838   21.1797 C   0  0  0  0  0  0  0  0  0  0  0  0
   10.7114   11.5424   18.8007 C   0  0  0  0  0  0  0  0  0  0  0  0
   10.8483   12.3163   17.6142 C   0  0  0  0  0  0  0  0  0  0  0  0
   12.4627    5.3089   21.1612 C   0  0  0  0  0  0  0  0  0  0  0  0
    7.8283    5.0386   21.9780 C   0  0  0  0  0  0  0  0  0  0  0  0
   13.0319   10.9917   18.2408 C   0  0  0  0  0  0  0  0  0  0  0  0
    8.7393    6.0783   22.1342 N   0  0  0  0  0  0  0  0  0  0  0  0
    5.6243    3.9981   22.0054 C   0  0  0  0  0  0  0  0  0  0  0  0
   11.7460    9.5713   19.8794 C   0  0  0  0  0  0  0  0  0  0  0  0
   12.8261    4.0540   21.2470 N   0  0  0  0  0  0  0  0  0  0  0  0
    8.2543    3.9980   21.2236 C   0  0  0  0  0  0  0  0  0  0  0  0
    7.3934    3.0299   20.7735 C   0  0  0  0  0  0  0  0  0  0  0  0
   11.4494    7.2681   21.3251 C   0  0  0  0  0  0  0  0  0  0  0  0
   10.6512    8.3375   21.6224 N   0  0  0  0  0  0  0  0  0  0  0  0
   11.4821    5.9726   21.8326 N   0  0  0  0  0  0  0  0  0  0  0  0
    9.7476   11.6616   19.4524 O   0  0  0  0  0  0  0  0  0  0  0  0
    6.4817    4.9800   22.4192 C   0  0  0  0  0  0  0  0  0  0  0  0
    8.6746    7.1947   22.7394 C   0  0  0  0  0  0  0  0  0  0  0  0
   12.4241    7.4058   20.3706 C   0  0  0  0  0  0  0  0  0  0  0  0
   14.0615    5.8796   19.3779 C   0  0  0  0  0  0  0  0  0  0  0  0
   13.0417    6.2212   20.2719 N   0  0  0  0  0  0  0  0  0  0  0  0
    9.6795    8.2195   22.6330 N   0  0  0  0  0  0  0  0  0  0  0  0
   10.7898    9.4763   20.8931 C   0  0  0  0  0  0  0  0  0  0  0  0
    7.7217    7.3969   23.5674 O   0  0  0  0  0  0  0  0  0  0  0  0
  1 11  4  0
  1 21  4  0
  2  4  1  0
  2  8  1  0
  2 11  1  0
  3 10  4  0
  3 14  4  0
  4  5  1  0
  4 18  2  0
  6 12  1  0
  6 17  4  0
  6 23  4  0
  7  9  1  0
  7 13  4  0
  7 19  4  0
  9 20  1  0
 10 19  4  0
 11 25  4  0
 13 14  4  0
 15 16  4  0
 15 17  4  0
 15 21  4  0
 16 24  1  0
 16 25  4  0
 20 24  1  0
 20 26  2  0
 21 23  4  0
 22 23  1  0
M  END
$$$$

 Created by Python create_sdf_string function

 26 28  0  0  0  0  0  0  0  0999 V2000
   12.4822    8.6045   19.6277 N   0  0  0  0  0  0  0  0  0  0  0  0
   11.7059   10.7175   19.0115 N   0  0  0  0  0  0  0  0  0  0  0  0
    6.1596    2.9112   21.2225 C   0  0  0  0  0  0  0  0  0  0  0  0
   10.6925   11.6636   18.8395 C   0  0  0  0  0  0  0  0  0  0  0  0
   10.8706   12.5200   17.7267 C   0  0  0  0  0  0  0  0  0  0  0  0
   12.4421    5.3563   21.0233 C   0  0  0  0  0  0  0  0  0  0  0  0
    7.8408    4.9788   21.9827 C   0  0  0  0  0  0  0  0  0  0  0  0
   12.8885   11.0350   18.2757 C   0  0  0  0  0  0  0  0  0  0  0  0
    8.7211    6.0357   22.1698 N   0  0  0  0  0  0  0  0  0  0  0  0
    5.6837    3.8098   22.0997 C   0  0  0  0  0  0  0  0  0  0  0  0
   11.6208    9.5816   19.8252 C   0  0  0  0  0  0  0  0  0  0  0  0
   12.9085    4.1099   21.1132 N   0  0  0  0  0  0  0  0  0  0  0  0
    8.3242    3.9223   21.2235 C   0  0  0  0  0  0  0  0  0  0  0  0
    7.4782    2.9074   20.8047 C   0  0  0  0  0  0  0  0  0  0  0  0
   11.3515    7.2961   21.2221 C   0  0  0  0  0  0  0  0  0  0  0  0
   10.5612    8.3692   21.5701 N   0  0  0  0  0  0  0  0  0  0  0  0
   11.3935    5.9861   21.6819 N   0  0  0  0  0  0  0  0  0  0  0  0
    9.7351   11.7669   19.4496 O   0  0  0  0  0  0  0  0  0  0  0  0
    6.5206    4.8615   22.4766 C   0  0  0  0  0  0  0  0  0  0  0  0
    8.6531    7.1552   22.7717 C   0  0  0  0  0  0  0  0  0  0  0  0
   12.3437    7.4606   20.2898 C   0  0  0  0  0  0  0  0  0  0  0  0
   14.1651    6.0053   19.3405 C   0  0  0  0  0  0  0  0  0  0  0  0
   13.0406    6.3006   20.1611 N   0  0  0  0  0  0  0  0  0  0  0  0
    9.6414    8.2593   22.6411 C   0  0  0  0  0  0  0  0  0  0  0  0
   10.6858    9.4897   20.8548 C   0  0  0  0  0  0  0  0  0  0  0  0
    7.7034    7.3147   23.5613 O   0  0  0  0  0  0  0  0  0  0  0  0
  1 11  4  0
  1 21  4  0
  2  4  1  0
  2  8  1  0
  2 11  1  0
  3 10  4  0
  3 14  4  0
  4  5  1  0
  4 18  2  0
  6 12  1  0
  6 17  4  0
  6 23  4  0
  7  9  1  0
  7 13  4  0
  7 19  4  0
  9 20  1  0
 10 19  4  0
 11 25  4  0
 13 14  4  0
 15 16  4  0
 15 17  4  0
 15 21  4  0
 16 24  1  0
 16 25  4  0
 20 24  1  0
 20 26  2  0
 21 23  4  0
 22 23  1  0
M  END
$$$$

 Created by Python create_sdf_string function

 26 28  0  0  0  0  0  0  0  0999 V2000
   12.4651    8.6229   19.5986 N   0  0  0  0  0  0  0  0  0  0  0  0
   11.7078   10.7393   18.9516 N   0  0  0  0  0  0  0  0  0  0  0  0
    6.0228    2.9727   21.2782 C   0  0  0  0  0  0  0  0  0  0  0  0
   10.7891   11.7879   18.8189 C   0  0  0  0  0  0  0  0  0  0  0  0
   10.9797   12.6608   17.6935 C   0  0  0  0  0  0  0  0  0  0  0  0
   12.4545    5.4166   21.2093 C   0  0  0  0  0  0  0  0  0  0  0  0
    7.7105    5.0523   21.9469 C   0  0  0  0  0  0  0  0  0  0  0  0
   12.9659   10.9085   18.1640 C   0  0  0  0  0  0  0  0  0  0  0  0
    8.6030    6.0997   22.1189 N   0  0  0  0  0  0  0  0  0  0  0  0
    5.5897    3.9244   22.0965 C   0  0  0  0  0  0  0  0  0  0  0  0
   11.6003    9.6310   19.7848 C   0  0  0  0  0  0  0  0  0  0  0  0
   12.7717    4.1737   21.3246 N   0  0  0  0  0  0  0  0  0  0  0  0
    8.1463    4.0415   21.1334 C   0  0  0  0  0  0  0  0  0  0  0  0
    7.3055    2.9921   20.7795 C   0  0  0  0  0  0  0  0  0  0  0  0
   11.3702    7.3583   21.2895 C   0  0  0  0  0  0  0  0  0  0  0  0
   10.5365    8.3949   21.5436 C   0  0  0  0  0  0  0  0  0  0  0  0
   11.4576    6.0954   21.8982 N   0  0  0  0  0  0  0  0  0  0  0  0
    9.8940   11.9780   19.5315 O   0  0  0  0  0  0  0  0  0  0  0  0
    6.4264    4.9468   22.4431 C   0  0  0  0  0  0  0  0  0  0  0  0
    8.5683    7.2117   22.8083 C   0  0  0  0  0  0  0  0  0  0  0  0
   12.3127    7.4977   20.3243 C   0  0  0  0  0  0  0  0  0  0  0  0
   14.0518    6.0012   19.4713 C   0  0  0  0  0  0  0  0  0  0  0  0
   12.9839    6.3155   20.2786 N   0  0  0  0  0  0  0  0  0  0  0  0
    9.5839    8.3091   22.6168 C   0  0  0  0  0  0  0  0  0  0  0  0
   10.6447    9.4973   20.7711 C   0  0  0  0  0  0  0  0  0  0  0  0
    7.6146    7.3613   23.6791 O   0  0  0  0  0  0  0  0  0  0  0  0
  1 11  4  0
  1 21  4  0
  2  4  1  0
  2  8  1  0
  2 11  1  0
  3 10  4  0
  3 14  4  0
  4  5  1  0
  4 18  2  0
  6 12  1  0
  6 17  4  0
  6 23  4  0
  7  9  1  0
  7 13  4  0
  7 19  4  0
  9 20  1  0
 10 19  4  0
 11 25  4  0
 13 14  4  0
 15 16  4  0
 15 17  4  0
 15 21  4  0
 16 24  1  0
 16 25  4  0
 20 24  1  0
 20 26  2  0
 21 23  4  0
 22 23  1  0
M  END
$$$$

 Created by Python create_sdf_string function

 26 28  0  0  0  0  0  0  0  0999 V2000
   12.4299    8.6195   19.5556 N   0  0  0  0  0  0  0  0  0  0  0  0
   11.7131   10.7303   18.9165 N   0  0  0  0  0  0  0  0  0  0  0  0
    6.0860    2.9458   21.2981 C   0  0  0  0  0  0  0  0  0  0  0  0
   10.7747   11.7630   18.7682 C   0  0  0  0  0  0  0  0  0  0  0  0
   11.0114   12.6231   17.6482 C   0  0  0  0  0  0  0  0  0  0  0  0
   12.4274    5.4427   21.1558 C   0  0  0  0  0  0  0  0  0  0  0  0
    7.8131    4.9651   22.0154 C   0  0  0  0  0  0  0  0  0  0  0  0
   12.9789   10.9847   18.1775 C   0  0  0  0  0  0  0  0  0  0  0  0
    8.7153    5.9857   22.2664 N   0  0  0  0  0  0  0  0  0  0  0  0
    5.6226    3.8730   22.1139 C   0  0  0  0  0  0  0  0  0  0  0  0
   11.5816    9.6320   19.7554 C   0  0  0  0  0  0  0  0  0  0  0  0
   12.7899    4.1881   21.3488 N   0  0  0  0  0  0  0  0  0  0  0  0
    8.2523    3.9394   21.2552 C   0  0  0  0  0  0  0  0  0  0  0  0
    7.3797    2.9064   20.8618 C   0  0  0  0  0  0  0  0  0  0  0  0
   11.3786    7.3502   21.2614 C   0  0  0  0  0  0  0  0  0  0  0  0
   10.5632    8.4235   21.5859 C   0  0  0  0  0  0  0  0  0  0  0  0
   11.4289    6.0751   21.8111 N   0  0  0  0  0  0  0  0  0  0  0  0
    9.9158   11.9283   19.4740 O   0  0  0  0  0  0  0  0  0  0  0  0
    6.5054    4.9180   22.4660 C   0  0  0  0  0  0  0  0  0  0  0  0
    8.6797    7.1805   22.7857 C   0  0  0  0  0  0  0  0  0  0  0  0
   12.2944    7.5131   20.2907 C   0  0  0  0  0  0  0  0  0  0  0  0
   14.0576    6.0945   19.3761 C   0  0  0  0  0  0  0  0  0  0  0  0
   12.9744    6.3466   20.2234 N   0  0  0  0  0  0  0  0  0  0  0  0
    9.6850    8.2620   22.6615 N   0  0  0  0  0  0  0  0  0  0  0  0
   10.6654    9.5371   20.7901 N   0  0  0  0  0  0  0  0  0  0  0  0
    7.7355    7.3848   23.5004 O   0  0  0  0  0  0  0  0  0  0  0  0
  1 11  4  0
  1 21  4  0
  2  4  1  0
  2  8  1  0
  2 11  1  0
  3 10  4  0
  3 14  4  0
  4  5  1  0
  4 18  2  0
  6 12  1  0
  6 17  4  0
  6 23  4  0
  7  9  1  0
  7 13  4  0
  7 19  4  0
  9 20  1  0
 10 19  4  0
 11 25  4  0
 13 14  4  0
 15 16  4  0
 15 17  4  0
 15 21  4  0
 16 24  1  0
 16 25  4  0
 20 24  1  0
 20 26  2  0
 21 23  4  0
 22 23  1  0
M  END
$$$$

 Created by Python create_sdf_string function

 26 28  0  0  0  0  0  0  0  0999 V2000
   12.3626    8.5779   19.4641 N   0  0  0  0  0  0  0  0  0  0  0  0
   11.6493   10.6854   18.8286 N   0  0  0  0  0  0  0  0  0  0  0  0
    6.0138    2.9326   21.2808 C   0  0  0  0  0  0  0  0  0  0  0  0
   10.7203   11.7497   18.6986 C   0  0  0  0  0  0  0  0  0  0  0  0
   10.9810   12.6435   17.5837 C   0  0  0  0  0  0  0  0  0  0  0  0
   12.4262    5.3979   21.0677 C   0  0  0  0  0  0  0  0  0  0  0  0
    7.7642    4.9390   21.9119 C   0  0  0  0  0  0  0  0  0  0  0  0
   12.8940   10.9729   18.0945 C   0  0  0  0  0  0  0  0  0  0  0  0
    8.6980    5.9621   22.0581 N   0  0  0  0  0  0  0  0  0  0  0  0
    5.6111    3.8985   22.0998 C   0  0  0  0  0  0  0  0  0  0  0  0
   11.5060    9.5907   19.6929 C   0  0  0  0  0  0  0  0  0  0  0  0
   12.7449    4.1144   21.1974 N   0  0  0  0  0  0  0  0  0  0  0  0
    8.1764    3.9054   21.1231 C   0  0  0  0  0  0  0  0  0  0  0  0
    7.2759    2.9207   20.7852 C   0  0  0  0  0  0  0  0  0  0  0  0
   11.3576    7.3214   21.1668 C   0  0  0  0  0  0  0  0  0  0  0  0
   10.4779    8.3905   21.4482 C   0  0  0  0  0  0  0  0  0  0  0  0
   11.4400    6.0725   21.7412 N   0  0  0  0  0  0  0  0  0  0  0  0
    9.8442   11.9147   19.4602 O   0  0  0  0  0  0  0  0  0  0  0  0
    6.4958    4.9249   22.4277 C   0  0  0  0  0  0  0  0  0  0  0  0
    8.6775    7.1204   22.7172 C   0  0  0  0  0  0  0  0  0  0  0  0
   12.2578    7.4656   20.1905 C   0  0  0  0  0  0  0  0  0  0  0  0
   14.0311    5.8830   19.3465 C   0  0  0  0  0  0  0  0  0  0  0  0
   12.9787    6.2678   20.1356 N   0  0  0  0  0  0  0  0  0  0  0  0
    9.5459    8.2236   22.4705 N   0  0  0  0  0  0  0  0  0  0  0  0
   10.5575    9.4964   20.6666 N   0  0  0  0  0  0  0  0  0  0  0  0
    7.7690    7.2874   23.5581 O   0  0  0  0  0  0  0  0  0  0  0  0
  1 11  4  0
  1 21  4  0
  2  4  1  0
  2  8  1  0
  2 11  1  0
  3 10  4  0
  3 14  4  0
  4  5  1  0
  4 18  2  0
  6 12  1  0
  6 17  4  0
  6 23  4  0
  7  9  1  0
  7 13  4  0
  7 19  4  0
  9 20  1  0
 10 19  4  0
 11 25  4  0
 13 14  4  0
 15 16  4  0
 15 17  4  0
 15 21  4  0
 16 24  1  0
 16 25  4  0
 20 24  1  0
 20 26  2  0
 21 23  4  0
 22 23  1  0
M  END
$$$$

 Created by Python create_sdf_string function

 26 28  0  0  0  0  0  0  0  0999 V2000
   12.4554    8.6372   19.5576 N   0  0  0  0  0  0  0  0  0  0  0  0
   11.6597   10.7475   18.8076 N   0  0  0  0  0  0  0  0  0  0  0  0
    6.0958    2.8638   21.2651 C   0  0  0  0  0  0  0  0  0  0  0  0
   10.6697   11.7879   18.7300 C   0  0  0  0  0  0  0  0  0  0  0  0
   10.8135   12.6941   17.6164 C   0  0  0  0  0  0  0  0  0  0  0  0
   12.4791    5.3884   20.9953 C   0  0  0  0  0  0  0  0  0  0  0  0
    7.8595    4.8874   21.8194 C   0  0  0  0  0  0  0  0  0  0  0  0
   12.9048   11.0377   18.1006 C   0  0  0  0  0  0  0  0  0  0  0  0
    8.7388    5.9164   21.9838 N   0  0  0  0  0  0  0  0  0  0  0  0
    5.7280    3.8248   22.1340 C   0  0  0  0  0  0  0  0  0  0  0  0
   11.5478    9.6088   19.6603 C   0  0  0  0  0  0  0  0  0  0  0  0
   12.8876    4.0520   21.2167 C   0  0  0  0  0  0  0  0  0  0  0  0
    8.2512    3.8399   20.9977 C   0  0  0  0  0  0  0  0  0  0  0  0
    7.3565    2.8331   20.7068 C   0  0  0  0  0  0  0  0  0  0  0  0
   11.3178    7.2726   21.0826 C   0  0  0  0  0  0  0  0  0  0  0  0
   10.4499    8.3642   21.3413 C   0  0  0  0  0  0  0  0  0  0  0  0
   11.3671    5.9582   21.5825 N   0  0  0  0  0  0  0  0  0  0  0  0
    9.7885   11.9111   19.5101 O   0  0  0  0  0  0  0  0  0  0  0  0
    6.5987    4.8518   22.4012 C   0  0  0  0  0  0  0  0  0  0  0  0
    8.6290    7.1033   22.6230 C   0  0  0  0  0  0  0  0  0  0  0  0
   12.3126    7.4805   20.2146 C   0  0  0  0  0  0  0  0  0  0  0  0
   14.1858    6.0792   19.4137 C   0  0  0  0  0  0  0  0  0  0  0  0
   13.0622    6.3330   20.1560 N   0  0  0  0  0  0  0  0  0  0  0  0
    9.4848    8.1989   22.3283 N   0  0  0  0  0  0  0  0  0  0  0  0
   10.5569    9.4920   20.5743 N   0  0  0  0  0  0  0  0  0  0  0  0
    7.7573    7.2657   23.5193 O   0  0  0  0  0  0  0  0  0  0  0  0
  1 11  4  0
  1 21  4  0
  2  4  1  0
  2  8  1  0
  2 11  1  0
  3 10  4  0
  3 14  4  0
  4  5  1  0
  4 18  2  0
  6 12  1  0
  6 17  4  0
  6 23  4  0
  7  9  1  0
  7 13  4  0
  7 19  4  0
  9 20  1  0
 10 19  4  0
 11 25  4  0
 13 14  4  0
 15 16  4  0
 15 17  4  0
 15 21  4  0
 16 24  1  0
 16 25  4  0
 20 24  1  0
 20 26  2  0
 21 23  4  0
 22 23  1  0
M  END
$$$$

 Created by Python create_sdf_string function

 26 28  0  0  0  0  0  0  0  0999 V2000
   12.5500    8.6071   19.5201 N   0  0  0  0  0  0  0  0  0  0  0  0
   11.6742   10.7253   18.7981 N   0  0  0  0  0  0  0  0  0  0  0  0
    6.0841    2.8356   21.3282 C   0  0  0  0  0  0  0  0  0  0  0  0
   10.6324   11.7082   18.6637 C   0  0  0  0  0  0  0  0  0  0  0  0
   10.7650   12.6242   17.5415 C   0  0  0  0  0  0  0  0  0  0  0  0
   12.4926    5.3061   20.9207 C   0  0  0  0  0  0  0  0  0  0  0  0
    7.8435    4.8843   21.8470 C   0  0  0  0  0  0  0  0  0  0  0  0
   12.9355   11.1258   18.1483 C   0  0  0  0  0  0  0  0  0  0  0  0
    8.7418    5.9155   22.0228 N   0  0  0  0  0  0  0  0  0  0  0  0
    5.7101    3.8227   22.1462 C   0  0  0  0  0  0  0  0  0  0  0  0
   11.6186    9.5783   19.6659 C   0  0  0  0  0  0  0  0  0  0  0  0
   12.9216    3.9858   21.1312 C   0  0  0  0  0  0  0  0  0  0  0  0
    8.2224    3.8268   21.0277 C   0  0  0  0  0  0  0  0  0  0  0  0
    7.3393    2.8149   20.7498 C   0  0  0  0  0  0  0  0  0  0  0  0
   11.3371    7.2231   21.0548 C   0  0  0  0  0  0  0  0  0  0  0  0
   10.4609    8.2960   21.2982 C   0  0  0  0  0  0  0  0  0  0  0  0
   11.3916    5.8902   21.5176 N   0  0  0  0  0  0  0  0  0  0  0  0
    9.7410   11.8427   19.4323 O   0  0  0  0  0  0  0  0  0  0  0  0
    6.5657    4.8669   22.4291 C   0  0  0  0  0  0  0  0  0  0  0  0
    8.6282    7.1058   22.6375 C   0  0  0  0  0  0  0  0  0  0  0  0
   12.3524    7.4347   20.1811 C   0  0  0  0  0  0  0  0  0  0  0  0
   14.0940    6.0274   19.2084 C   0  0  0  0  0  0  0  0  0  0  0  0
   13.0713    6.2537   20.0693 N   0  0  0  0  0  0  0  0  0  0  0  0
    9.4483    8.1539   22.2190 N   0  0  0  0  0  0  0  0  0  0  0  0
   10.6175    9.4298   20.5869 N   0  0  0  0  0  0  0  0  0  0  0  0
    7.7869    7.3054   23.5806 O   0  0  0  0  0  0  0  0  0  0  0  0
  1 11  4  0
  1 21  4  0
  2  4  1  0
  2  8  1  0
  2 11  1  0
  3 10  4  0
  3 14  4  0
  4  5  1  0
  4 18  2  0
  6 12  1  0
  6 17  4  0
  6 23  4  0
  7  9  1  0
  7 13  4  0
  7 19  4  0
  9 20  1  0
 10 19  4  0
 11 25  4  0
 13 14  4  0
 15 16  4  0
 15 17  4  0
 15 21  4  0
 16 24  1  0
 16 25  4  0
 20 24  1  0
 20 26  2  0
 21 23  4  0
 22 23  1  0
M  END
$$$$

 Created by Python create_sdf_string function

 26 28  0  0  0  0  0  0  0  0999 V2000
   12.4805    8.6490   19.4968 N   0  0  0  0  0  0  0  0  0  0  0  0
   11.6609   10.8181   18.8902 N   0  0  0  0  0  0  0  0  0  0  0  0
    6.0748    2.8363   21.3404 C   0  0  0  0  0  0  0  0  0  0  0  0
   10.5948   11.7279   18.6059 C   0  0  0  0  0  0  0  0  0  0  0  0
   10.7827   12.6097   17.4860 C   0  0  0  0  0  0  0  0  0  0  0  0
   12.5102    5.3651   20.9092 C   0  0  0  0  0  0  0  0  0  0  0  0
    7.7762    4.9259   21.8828 C   0  0  0  0  0  0  0  0  0  0  0  0
   12.9096   11.1702   18.2124 C   0  0  0  0  0  0  0  0  0  0  0  0
    8.6839    5.9337   22.0737 N   0  0  0  0  0  0  0  0  0  0  0  0
    5.6621    3.7851   22.1828 C   0  0  0  0  0  0  0  0  0  0  0  0
   11.5602    9.6270   19.6505 C   0  0  0  0  0  0  0  0  0  0  0  0
   12.9811    4.1145   21.1330 C   0  0  0  0  0  0  0  0  0  0  0  0
    8.1807    3.9170   21.0423 C   0  0  0  0  0  0  0  0  0  0  0  0
    7.3294    2.8820   20.7670 C   0  0  0  0  0  0  0  0  0  0  0  0
   11.2933    7.2467   21.0051 C   0  0  0  0  0  0  0  0  0  0  0  0
   10.4099    8.3058   21.2346 C   0  0  0  0  0  0  0  0  0  0  0  0
   11.3818    5.9263   21.4977 N   0  0  0  0  0  0  0  0  0  0  0  0
    9.5888   11.7840   19.2302 O   0  0  0  0  0  0  0  0  0  0  0  0
    6.4997    4.8516   22.4602 C   0  0  0  0  0  0  0  0  0  0  0  0
    8.5975    7.1472   22.6285 C   0  0  0  0  0  0  0  0  0  0  0  0
   12.3028    7.4738   20.1487 C   0  0  0  0  0  0  0  0  0  0  0  0
   14.1278    6.1187   19.2187 C   0  0  0  0  0  0  0  0  0  0  0  0
   13.0479    6.3184   20.0469 N   0  0  0  0  0  0  0  0  0  0  0  0
    9.4059    8.1805   22.1783 N   0  0  0  0  0  0  0  0  0  0  0  0
   10.5455    9.4506   20.5357 N   0  0  0  0  0  0  0  0  0  0  0  0
    7.8122    7.3374   23.5967 O   0  0  0  0  0  0  0  0  0  0  0  0
  1 11  4  0
  1 21  4  0
  2  4  1  0
  2  8  1  0
  2 11  1  0
  3 10  4  0
  3 14  4  0
  4  5  1  0
  4 18  2  0
  6 12  1  0
  6 17  4  0
  6 23  4  0
  7  9  1  0
  7 13  4  0
  7 19  4  0
  9 20  1  0
 10 19  4  0
 11 25  4  0
 13 14  4  0
 15 16  4  0
 15 17  4  0
 15 21  4  0
 16 24  1  0
 16 25  4  0
 20 24  1  0
 20 26  2  0
 21 23  4  0
 22 23  1  0
M  END
$$$$

 Created by Python create_sdf_string function

 26 28  0  0  0  0  0  0  0  0999 V2000
   12.5616    8.7302   19.5805 N   0  0  0  0  0  0  0  0  0  0  0  0
   11.8241   10.9691   19.0744 N   0  0  0  0  0  0  0  0  0  0  0  0
    5.9945    2.8626   21.2839 C   0  0  0  0  0  0  0  0  0  0  0  0
   10.6188   11.7272   18.6237 C   0  0  0  0  0  0  0  0  0  0  0  0
   10.8009   12.5930   17.5036 C   0  0  0  0  0  0  0  0  0  0  0  0
   12.4985    5.3965   20.8689 C   0  0  0  0  0  0  0  0  0  0  0  0
    7.7173    4.9460   21.8759 C   0  0  0  0  0  0  0  0  0  0  0  0
   13.0247   11.1367   18.3052 C   0  0  0  0  0  0  0  0  0  0  0  0
    8.6429    5.9655   21.9763 N   0  0  0  0  0  0  0  0  0  0  0  0
    5.5668    3.8282   22.1204 C   0  0  0  0  0  0  0  0  0  0  0  0
   11.6232    9.6858   19.7426 C   0  0  0  0  0  0  0  0  0  0  0  0
   13.0384    4.0749   21.0482 C   0  0  0  0  0  0  0  0  0  0  0  0
    8.1171    3.8787   21.0941 C   0  0  0  0  0  0  0  0  0  0  0  0
    7.2773    2.8666   20.7731 C   0  0  0  0  0  0  0  0  0  0  0  0
   11.2667    7.2790   21.0212 C   0  0  0  0  0  0  0  0  0  0  0  0
   10.3766    8.3353   21.2336 C   0  0  0  0  0  0  0  0  0  0  0  0
   11.3672    5.9673   21.4520 N   0  0  0  0  0  0  0  0  0  0  0  0
    9.5581   11.6981   19.1787 O   0  0  0  0  0  0  0  0  0  0  0  0
    6.4214    4.8636   22.4265 C   0  0  0  0  0  0  0  0  0  0  0  0
    8.5648    7.1175   22.6203 C   0  0  0  0  0  0  0  0  0  0  0  0
   12.3257    7.5439   20.1821 C   0  0  0  0  0  0  0  0  0  0  0  0
   14.1266    6.2832   19.1826 C   0  0  0  0  0  0  0  0  0  0  0  0
   13.0799    6.3593   20.0494 N   0  0  0  0  0  0  0  0  0  0  0  0
    9.3389    8.2163   22.1092 N   0  0  0  0  0  0  0  0  0  0  0  0
   10.5411    9.4639   20.5641 N   0  0  0  0  0  0  0  0  0  0  0  0
    7.7887    7.1857   23.6398 O   0  0  0  0  0  0  0  0  0  0  0  0
  1 11  4  0
  1 21  4  0
  2  4  1  0
  2  8  1  0
  2 11  1  0
  3 10  4  0
  3 14  4  0
  4  5  1  0
  4 18  2  0
  6 12  1  0
  6 17  4  0
  6 23  4  0
  7  9  1  0
  7 13  4  0
  7 19  4  0
  9 20  1  0
 10 19  4  0
 11 25  4  0
 13 14  4  0
 15 16  4  0
 15 17  4  0
 15 21  4  0
 16 24  1  0
 16 25  4  0
 20 24  1  0
 20 26  2  0
 21 23  4  0
 22 23  1  0
M  END
$$$$

 Created by Python create_sdf_string function

 26 28  0  0  0  0  0  0  0  0999 V2000
   12.5046    8.7385   19.6495 N   0  0  0  0  0  0  0  0  0  0  0  0
   11.7434   10.8574   18.9407 N   0  0  0  0  0  0  0  0  0  0  0  0
    6.1105    2.8585   21.1829 C   0  0  0  0  0  0  0  0  0  0  0  0
   10.6318   11.6881   18.5982 C   0  0  0  0  0  0  0  0  0  0  0  0
   10.8327   12.6303   17.5448 C   0  0  0  0  0  0  0  0  0  0  0  0
   12.4605    5.4301   20.9305 C   0  0  0  0  0  0  0  0  0  0  0  0
    7.7984    4.8821   21.8023 C   0  0  0  0  0  0  0  0  0  0  0  0
   12.9617   11.1287   18.1813 C   0  0  0  0  0  0  0  0  0  0  0  0
    8.6365    5.9233   21.9763 N   0  0  0  0  0  0  0  0  0  0  0  0
    5.7001    3.7797   22.0271 C   0  0  0  0  0  0  0  0  0  0  0  0
   11.5825    9.6942   19.7109 C   0  0  0  0  0  0  0  0  0  0  0  0
   12.9254    4.1453   21.0875 C   0  0  0  0  0  0  0  0  0  0  0  0
    8.2381    3.8469   21.0113 C   0  0  0  0  0  0  0  0  0  0  0  0
    7.3813    2.8345   20.6760 C   0  0  0  0  0  0  0  0  0  0  0  0
   11.2244    7.3073   21.0299 C   0  0  0  0  0  0  0  0  0  0  0  0
   10.3206    8.3409   21.2174 C   0  0  0  0  0  0  0  0  0  0  0  0
   11.3156    5.9800   21.4993 N   0  0  0  0  0  0  0  0  0  0  0  0
    9.5783   11.6384   19.0953 O   0  0  0  0  0  0  0  0  0  0  0  0
    6.5216    4.8182   22.3541 C   0  0  0  0  0  0  0  0  0  0  0  0
    8.5169    7.1105   22.4932 C   0  0  0  0  0  0  0  0  0  0  0  0
   12.2763    7.5404   20.2387 C   0  0  0  0  0  0  0  0  0  0  0  0
   14.0975    6.2687   19.3595 C   0  0  0  0  0  0  0  0  0  0  0  0
   13.0213    6.4173   20.1432 N   0  0  0  0  0  0  0  0  0  0  0  0
    9.2205    8.1775   22.0482 N   0  0  0  0  0  0  0  0  0  0  0  0
   10.4898    9.4929   20.5406 C   0  0  0  0  0  0  0  0  0  0  0  0
    7.6548    7.2980   23.5271 S   0  0  0  0  0  0  0  0  0  0  0  0
  1 11  4  0
  1 21  4  0
  2  4  1  0
  2  8  1  0
  2 11  1  0
  3 10  4  0
  3 14  4  0
  4  5  1  0
  4 18  2  0
  6 12  1  0
  6 17  4  0
  6 23  4  0
  7  9  1  0
  7 13  4  0
  7 19  4  0
  9 20  1  0
 10 19  4  0
 11 25  4  0
 13 14  4  0
 15 16  4  0
 15 17  4  0
 15 21  4  0
 16 24  1  0
 16 25  4  0
 20 24  1  0
 20 26  2  0
 21 23  4  0
 22 23  1  0
M  END
$$$$

 Created by Python create_sdf_string function

 26 28  0  0  0  0  0  0  0  0999 V2000
   12.5149    8.7308   19.6421 N   0  0  0  0  0  0  0  0  0  0  0  0
   11.7631   10.8578   18.9511 N   0  0  0  0  0  0  0  0  0  0  0  0
    6.1850    2.7690   21.2130 C   0  0  0  0  0  0  0  0  0  0  0  0
   10.7010   11.7377   18.5814 C   0  0  0  0  0  0  0  0  0  0  0  0
   10.9254   12.5832   17.4770 C   0  0  0  0  0  0  0  0  0  0  0  0
   12.4522    5.4206   20.9277 C   0  0  0  0  0  0  0  0  0  0  0  0
    7.8006    4.8846   21.7644 C   0  0  0  0  0  0  0  0  0  0  0  0
   13.0046   11.1011   18.2939 C   0  0  0  0  0  0  0  0  0  0  0  0
    8.6101    5.9599   21.9170 N   0  0  0  0  0  0  0  0  0  0  0  0
    5.7501    3.7245   22.0515 C   0  0  0  0  0  0  0  0  0  0  0  0
   11.5674    9.6928   19.7323 C   0  0  0  0  0  0  0  0  0  0  0  0
   12.9201    4.1750   21.0768 C   0  0  0  0  0  0  0  0  0  0  0  0
    8.2499    3.8705   20.9728 C   0  0  0  0  0  0  0  0  0  0  0  0
    7.4490    2.8354   20.6906 C   0  0  0  0  0  0  0  0  0  0  0  0
   11.2256    7.2983   21.0253 C   0  0  0  0  0  0  0  0  0  0  0  0
   10.3075    8.3240   21.2310 C   0  0  0  0  0  0  0  0  0  0  0  0
   11.2969    5.9603   21.4532 N   0  0  0  0  0  0  0  0  0  0  0  0
    9.6940   11.7301   19.1227 O   0  0  0  0  0  0  0  0  0  0  0  0
    6.5280    4.7991   22.3324 C   0  0  0  0  0  0  0  0  0  0  0  0
    8.4916    7.1504   22.4822 C   0  0  0  0  0  0  0  0  0  0  0  0
   12.3146    7.5540   20.2342 C   0  0  0  0  0  0  0  0  0  0  0  0
   14.2147    6.3153   19.3912 C   0  0  0  0  0  0  0  0  0  0  0  0
   13.0928    6.3948   20.1530 N   0  0  0  0  0  0  0  0  0  0  0  0
    9.2208    8.1697   22.0599 N   0  0  0  0  0  0  0  0  0  0  0  0
   10.4829    9.4892   20.5693 C   0  0  0  0  0  0  0  0  0  0  0  0
    7.5287    7.4288   23.5542 S   0  0  0  0  0  0  0  0  0  0  0  0
  1 11  4  0
  1 21  4  0
  2  4  1  0
  2  8  1  0
  2 11  1  0
  3 10  4  0
  3 14  4  0
  4  5  1  0
  4 18  2  0
  6 12  1  0
  6 17  4  0
  6 23  4  0
  7  9  1  0
  7 13  4  0
  7 19  4  0
  9 20  1  0
 10 19  4  0
 11 25  4  0
 13 14  4  0
 15 16  4  0
 15 17  4  0
 15 21  4  0
 16 24  1  0
 16 25  4  0
 20 24  1  0
 20 26  2  0
 21 23  4  0
 22 23  1  0
M  END
$$$$

 Created by Python create_sdf_string function

 26 28  0  0  0  0  0  0  0  0999 V2000
   12.5016    8.7553   19.5941 N   0  0  0  0  0  0  0  0  0  0  0  0
   11.7233   10.8578   18.8611 N   0  0  0  0  0  0  0  0  0  0  0  0
    6.1964    2.7480   21.2556 C   0  0  0  0  0  0  0  0  0  0  0  0
   10.6860   11.7981   18.5672 C   0  0  0  0  0  0  0  0  0  0  0  0
   10.9564   12.7493   17.5281 C   0  0  0  0  0  0  0  0  0  0  0  0
   12.4564    5.4267   20.8694 C   0  0  0  0  0  0  0  0  0  0  0  0
    7.8016    4.9086   21.7819 C   0  0  0  0  0  0  0  0  0  0  0  0
   12.9825   11.1178   18.1612 C   0  0  0  0  0  0  0  0  0  0  0  0
    8.6437    5.9695   21.9718 N   0  0  0  0  0  0  0  0  0  0  0  0
    5.7586    3.6866   22.1137 C   0  0  0  0  0  0  0  0  0  0  0  0
   11.5512    9.6889   19.6553 C   0  0  0  0  0  0  0  0  0  0  0  0
   12.8975    4.1360   20.9866 C   0  0  0  0  0  0  0  0  0  0  0  0
    8.2326    3.9096   20.9470 C   0  0  0  0  0  0  0  0  0  0  0  0
    7.4318    2.8385   20.6674 C   0  0  0  0  0  0  0  0  0  0  0  0
   11.2104    7.2857   20.9824 C   0  0  0  0  0  0  0  0  0  0  0  0
   10.2926    8.3034   21.1799 C   0  0  0  0  0  0  0  0  0  0  0  0
   11.2865    5.9255   21.4171 N   0  0  0  0  0  0  0  0  0  0  0  0
    9.6786   11.7775   19.1091 O   0  0  0  0  0  0  0  0  0  0  0  0
    6.5255    4.7861   22.3779 C   0  0  0  0  0  0  0  0  0  0  0  0
    8.4999    7.1657   22.4762 C   0  0  0  0  0  0  0  0  0  0  0  0
   12.3022    7.5634   20.2003 C   0  0  0  0  0  0  0  0  0  0  0  0
   14.2186    6.2910   19.3824 C   0  0  0  0  0  0  0  0  0  0  0  0
   13.0920    6.4175   20.1257 N   0  0  0  0  0  0  0  0  0  0  0  0
    9.2251    8.1494   22.0636 N   0  0  0  0  0  0  0  0  0  0  0  0
   10.4539    9.4571   20.4847 C   0  0  0  0  0  0  0  0  0  0  0  0
    7.4371    7.3933   23.6681 S   0  0  0  0  0  0  0  0  0  0  0  0
  1 11  4  0
  1 21  4  0
  2  4  1  0
  2  8  1  0
  2 11  1  0
  3 10  4  0
  3 14  4  0
  4  5  1  0
  4 18  2  0
  6 12  1  0
  6 17  4  0
  6 23  4  0
  7  9  1  0
  7 13  4  0
  7 19  4  0
  9 20  1  0
 10 19  4  0
 11 25  4  0
 13 14  4  0
 15 16  4  0
 15 17  4  0
 15 21  4  0
 16 24  1  0
 16 25  4  0
 20 24  1  0
 20 26  2  0
 21 23  4  0
 22 23  1  0
M  END
$$$$

 Created by Python create_sdf_string function

 26 28  0  0  0  0  0  0  0  0999 V2000
   12.4546    8.7882   19.5233 N   0  0  0  0  0  0  0  0  0  0  0  0
   11.7016   10.8802   18.8002 N   0  0  0  0  0  0  0  0  0  0  0  0
    6.2384    2.7023   21.2237 C   0  0  0  0  0  0  0  0  0  0  0  0
   10.6926   11.7991   18.4965 C   0  0  0  0  0  0  0  0  0  0  0  0
   10.9192   12.7800   17.4187 C   0  0  0  0  0  0  0  0  0  0  0  0
   12.4221    5.4488   20.8593 C   0  0  0  0  0  0  0  0  0  0  0  0
    7.8098    4.8768   21.7741 C   0  0  0  0  0  0  0  0  0  0  0  0
   12.9928   11.0166   18.1715 C   0  0  0  0  0  0  0  0  0  0  0  0
    8.6755    5.9042   22.0171 N   0  0  0  0  0  0  0  0  0  0  0  0
    5.7852    3.6697   22.0461 C   0  0  0  0  0  0  0  0  0  0  0  0
   11.4905    9.7398   19.6176 C   0  0  0  0  0  0  0  0  0  0  0  0
   12.8895    4.1524   20.9459 C   0  0  0  0  0  0  0  0  0  0  0  0
    8.2647    3.8882   20.9338 C   0  0  0  0  0  0  0  0  0  0  0  0
    7.4980    2.8069   20.6756 C   0  0  0  0  0  0  0  0  0  0  0  0
   11.1831    7.3374   20.9321 C   0  0  0  0  0  0  0  0  0  0  0  0
   10.2582    8.3639   21.1459 C   0  0  0  0  0  0  0  0  0  0  0  0
   11.2520    5.9906   21.3645 N   0  0  0  0  0  0  0  0  0  0  0  0
    9.7041   11.8197   19.1130 O   0  0  0  0  0  0  0  0  0  0  0  0
    6.5216    4.7617   22.3358 C   0  0  0  0  0  0  0  0  0  0  0  0
    8.5275    7.1281   22.5032 C   0  0  0  0  0  0  0  0  0  0  0  0
   12.2612    7.6069   20.1546 C   0  0  0  0  0  0  0  0  0  0  0  0
   14.2133    6.2852   19.4399 C   0  0  0  0  0  0  0  0  0  0  0  0
   13.0658    6.4322   20.1225 N   0  0  0  0  0  0  0  0  0  0  0  0
    9.2042    8.1816   22.0660 N   0  0  0  0  0  0  0  0  0  0  0  0
   10.4049    9.5201   20.4597 C   0  0  0  0  0  0  0  0  0  0  0  0
    7.5425    7.3274   23.6450 S   0  0  0  0  0  0  0  0  0  0  0  0
  1 11  4  0
  1 21  4  0
  2  4  1  0
  2  8  1  0
  2 11  1  0
  3 10  4  0
  3 14  4  0
  4  5  1  0
  4 18  2  0
  6 12  1  0
  6 17  4  0
  6 23  4  0
  7  9  1  0
  7 13  4  0
  7 19  4  0
  9 20  1  0
 10 19  4  0
 11 25  4  0
 13 14  4  0
 15 16  4  0
 15 17  4  0
 15 21  4  0
 16 24  1  0
 16 25  4  0
 20 24  1  0
 20 26  2  0
 21 23  4  0
 22 23  1  0
M  END
$$$$

 Created by Python create_sdf_string function

 26 28  0  0  0  0  0  0  0  0999 V2000
   12.4711    8.7378   19.5711 N   0  0  0  0  0  0  0  0  0  0  0  0
   11.7138   10.8455   18.8363 N   0  0  0  0  0  0  0  0  0  0  0  0
    6.2137    2.7458   21.1261 C   0  0  0  0  0  0  0  0  0  0  0  0
   10.7230   11.8067   18.5422 C   0  0  0  0  0  0  0  0  0  0  0  0
   11.0130   12.7822   17.4625 C   0  0  0  0  0  0  0  0  0  0  0  0
   12.3939    5.4301   20.8583 C   0  0  0  0  0  0  0  0  0  0  0  0
    7.8408    4.8401   21.7589 C   0  0  0  0  0  0  0  0  0  0  0  0
   12.9862   11.0118   18.2257 C   0  0  0  0  0  0  0  0  0  0  0  0
    8.6932    5.8771   22.0050 N   0  0  0  0  0  0  0  0  0  0  0  0
    5.7368    3.6913   21.9610 C   0  0  0  0  0  0  0  0  0  0  0  0
   11.5263    9.7038   19.6393 C   0  0  0  0  0  0  0  0  0  0  0  0
   12.8706    4.1738   20.9915 C   0  0  0  0  0  0  0  0  0  0  0  0
    8.2972    3.8388   20.9410 C   0  0  0  0  0  0  0  0  0  0  0  0
    7.4858    2.7913   20.6193 C   0  0  0  0  0  0  0  0  0  0  0  0
   11.1697    7.2788   20.9275 C   0  0  0  0  0  0  0  0  0  0  0  0
   10.2635    8.3135   21.1419 C   0  0  0  0  0  0  0  0  0  0  0  0
   11.1954    5.9273   21.3303 N   0  0  0  0  0  0  0  0  0  0  0  0
    9.7146   11.8196   19.1411 O   0  0  0  0  0  0  0  0  0  0  0  0
    6.5402    4.7669   22.2844 C   0  0  0  0  0  0  0  0  0  0  0  0
    8.5389    7.1040   22.4879 C   0  0  0  0  0  0  0  0  0  0  0  0
   12.2754    7.5554   20.1792 C   0  0  0  0  0  0  0  0  0  0  0  0
   14.2190    6.2395   19.4668 C   0  0  0  0  0  0  0  0  0  0  0  0
   13.0562    6.4259   20.1442 N   0  0  0  0  0  0  0  0  0  0  0  0
    9.2310    8.1311   22.0063 N   0  0  0  0  0  0  0  0  0  0  0  0
   10.4410    9.4776   20.4662 C   0  0  0  0  0  0  0  0  0  0  0  0
    7.5136    7.3728   23.6818 S   0  0  0  0  0  0  0  0  0  0  0  0
  1 11  4  0
  1 21  4  0
  2  4  1  0
  2  8  1  0
  2 11  1  0
  3 10  4  0
  3 14  4  0
  4  5  1  0
  4 18  2  0
  6 12  1  0
  6 17  4  0
  6 23  4  0
  7  9  1  0
  7 13  4  0
  7 19  4  0
  9 20  1  0
 10 19  4  0
 11 25  4  0
 13 14  4  0
 15 16  4  0
 15 17  4  0
 15 21  4  0
 16 24  1  0
 16 25  4  0
 20 24  1  0
 20 26  2  0
 21 23  4  0
 22 23  1  0
M  END
$$$$

 Created by Python create_sdf_string function

 26 28  0  0  0  0  0  0  0  0999 V2000
   12.4487    8.7220   19.4954 N   0  0  0  0  0  0  0  0  0  0  0  0
   11.6793   10.8597   18.8003 N   0  0  0  0  0  0  0  0  0  0  0  0
    6.1505    2.7110   21.1335 C   0  0  0  0  0  0  0  0  0  0  0  0
   10.6959   11.8145   18.5127 C   0  0  0  0  0  0  0  0  0  0  0  0
   11.0188   12.8243   17.4624 C   0  0  0  0  0  0  0  0  0  0  0  0
   12.3909    5.4259   20.8179 C   0  0  0  0  0  0  0  0  0  0  0  0
    7.7978    4.7997   21.7558 C   0  0  0  0  0  0  0  0  0  0  0  0
   12.9409   11.0829   18.2044 C   0  0  0  0  0  0  0  0  0  0  0  0
    8.6607    5.8558   21.9903 N   0  0  0  0  0  0  0  0  0  0  0  0
    5.7112    3.6559   21.9999 C   0  0  0  0  0  0  0  0  0  0  0  0
   11.5082    9.6974   19.5897 C   0  0  0  0  0  0  0  0  0  0  0  0
   12.9075    4.1659   20.9454 C   0  0  0  0  0  0  0  0  0  0  0  0
    8.2616    3.7912   20.9588 C   0  0  0  0  0  0  0  0  0  0  0  0
    7.4502    2.7330   20.6419 C   0  0  0  0  0  0  0  0  0  0  0  0
   11.1643    7.2713   20.8976 C   0  0  0  0  0  0  0  0  0  0  0  0
   10.2692    8.3077   21.1214 C   0  0  0  0  0  0  0  0  0  0  0  0
   11.2007    5.9164   21.3060 N   0  0  0  0  0  0  0  0  0  0  0  0
    9.6765   11.8131   19.0658 O   0  0  0  0  0  0  0  0  0  0  0  0
    6.5195    4.7224   22.2930 C   0  0  0  0  0  0  0  0  0  0  0  0
    8.5437    7.0890   22.4573 C   0  0  0  0  0  0  0  0  0  0  0  0
   12.2598    7.5350   20.1369 C   0  0  0  0  0  0  0  0  0  0  0  0
   14.2352    6.2497   19.4757 C   0  0  0  0  0  0  0  0  0  0  0  0
   13.0478    6.4120   20.1053 N   0  0  0  0  0  0  0  0  0  0  0  0
    9.2545    8.1043   22.0016 N   0  0  0  0  0  0  0  0  0  0  0  0
   10.4422    9.4844   20.4420 C   0  0  0  0  0  0  0  0  0  0  0  0
    7.4978    7.4047   23.6292 S   0  0  0  0  0  0  0  0  0  0  0  0
  1 11  4  0
  1 21  4  0
  2  4  1  0
  2  8  1  0
  2 11  1  0
  3 10  4  0
  3 14  4  0
  4  5  1  0
  4 18  2  0
  6 12  1  0
  6 17  4  0
  6 23  4  0
  7  9  1  0
  7 13  4  0
  7 19  4  0
  9 20  1  0
 10 19  4  0
 11 25  4  0
 13 14  4  0
 15 16  4  0
 15 17  4  0
 15 21  4  0
 16 24  1  0
 16 25  4  0
 20 24  1  0
 20 26  2  0
 21 23  4  0
 22 23  1  0
M  END
$$$$

 Created by Python create_sdf_string function

 26 28  0  0  0  0  0  0  0  0999 V2000
   12.4480    8.7489   19.4342 N   0  0  0  0  0  0  0  0  0  0  0  0
   11.7505   10.8966   18.7686 N   0  0  0  0  0  0  0  0  0  0  0  0
    6.1584    2.6274   21.1693 C   0  0  0  0  0  0  0  0  0  0  0  0
   10.7347   11.8131   18.4907 C   0  0  0  0  0  0  0  0  0  0  0  0
   10.9732   12.8465   17.4414 C   0  0  0  0  0  0  0  0  0  0  0  0
   12.3934    5.4651   20.8226 C   0  0  0  0  0  0  0  0  0  0  0  0
    7.7721    4.8161   21.7902 C   0  0  0  0  0  0  0  0  0  0  0  0
   13.0284   11.0521   18.2095 C   0  0  0  0  0  0  0  0  0  0  0  0
    8.6243    5.9001   22.0049 N   0  0  0  0  0  0  0  0  0  0  0  0
    5.6645    3.5954   22.0359 C   0  0  0  0  0  0  0  0  0  0  0  0
   11.5306    9.7399   19.5283 C   0  0  0  0  0  0  0  0  0  0  0  0
   12.8289    4.1164   21.0580 C   0  0  0  0  0  0  0  0  0  0  0  0
    8.2508    3.7848   20.9945 C   0  0  0  0  0  0  0  0  0  0  0  0
    7.4693    2.7012   20.6496 C   0  0  0  0  0  0  0  0  0  0  0  0
   11.1722    7.3171   20.8574 C   0  0  0  0  0  0  0  0  0  0  0  0
   10.2822    8.3547   21.0577 C   0  0  0  0  0  0  0  0  0  0  0  0
   11.2170    5.9824   21.3142 N   0  0  0  0  0  0  0  0  0  0  0  0
    9.6987   11.7813   19.0226 O   0  0  0  0  0  0  0  0  0  0  0  0
    6.4654    4.7007   22.3195 C   0  0  0  0  0  0  0  0  0  0  0  0
    8.5414    7.1500   22.4123 C   0  0  0  0  0  0  0  0  0  0  0  0
   12.2584    7.5696   20.0775 C   0  0  0  0  0  0  0  0  0  0  0  0
   14.2382    6.3373   19.4623 C   0  0  0  0  0  0  0  0  0  0  0  0
   13.0528    6.4258   20.0709 N   0  0  0  0  0  0  0  0  0  0  0  0
    9.2765    8.1730   21.9457 N   0  0  0  0  0  0  0  0  0  0  0  0
   10.4386    9.5382   20.3707 C   0  0  0  0  0  0  0  0  0  0  0  0
    7.4748    7.4480   23.5809 S   0  0  0  0  0  0  0  0  0  0  0  0
  1 11  4  0
  1 21  4  0
  2  4  1  0
  2  8  1  0
  2 11  1  0
  3 10  4  0
  3 14  4  0
  4  5  1  0
  4 18  2  0
  6 12  1  0
  6 17  4  0
  6 23  4  0
  7  9  1  0
  7 13  4  0
  7 19  4  0
  9 20  1  0
 10 19  4  0
 11 25  4  0
 13 14  4  0
 15 16  4  0
 15 17  4  0
 15 21  4  0
 16 24  1  0
 16 25  4  0
 20 24  1  0
 20 26  2  0
 21 23  4  0
 22 23  1  0
M  END
$$$$

 Created by Python create_sdf_string function

 26 28  0  0  0  0  0  0  0  0999 V2000
   12.4579    8.7438   19.4499 N   0  0  0  0  0  0  0  0  0  0  0  0
   11.7426   10.8713   18.7210 N   0  0  0  0  0  0  0  0  0  0  0  0
    6.1463    2.6563   21.1185 C   0  0  0  0  0  0  0  0  0  0  0  0
   10.7420   11.8136   18.4843 C   0  0  0  0  0  0  0  0  0  0  0  0
   10.9747   12.8595   17.5166 C   0  0  0  0  0  0  0  0  0  0  0  0
   12.3690    5.4337   20.8068 C   0  0  0  0  0  0  0  0  0  0  0  0
    7.7505    4.8203   21.7826 C   0  0  0  0  0  0  0  0  0  0  0  0
   13.0094   11.0788   18.1644 C   0  0  0  0  0  0  0  0  0  0  0  0
    8.6011    5.8853   22.0059 N   0  0  0  0  0  0  0  0  0  0  0  0
    5.6463    3.6096   21.9771 C   0  0  0  0  0  0  0  0  0  0  0  0
   11.5329    9.7386   19.5137 C   0  0  0  0  0  0  0  0  0  0  0  0
   12.8659    4.1141   20.9917 C   0  0  0  0  0  0  0  0  0  0  0  0
    8.2411    3.8170   20.9734 C   0  0  0  0  0  0  0  0  0  0  0  0
    7.4632    2.7339   20.6334 C   0  0  0  0  0  0  0  0  0  0  0  0
   11.1450    7.3135   20.8707 C   0  0  0  0  0  0  0  0  0  0  0  0
   10.2704    8.3755   21.0689 C   0  0  0  0  0  0  0  0  0  0  0  0
   11.1813    5.9550   21.2936 N   0  0  0  0  0  0  0  0  0  0  0  0
    9.7344   11.7427   19.0243 O   0  0  0  0  0  0  0  0  0  0  0  0
    6.4492    4.6989   22.3095 C   0  0  0  0  0  0  0  0  0  0  0  0
    8.5303    7.1552   22.4240 C   0  0  0  0  0  0  0  0  0  0  0  0
   12.2432    7.5548   20.0924 C   0  0  0  0  0  0  0  0  0  0  0  0
   14.1981    6.2741   19.4237 C   0  0  0  0  0  0  0  0  0  0  0  0
   13.0321    6.4024   20.0794 N   0  0  0  0  0  0  0  0  0  0  0  0
    9.2398    8.2035   21.9515 N   0  0  0  0  0  0  0  0  0  0  0  0
   10.4407    9.5422   20.3608 C   0  0  0  0  0  0  0  0  0  0  0  0
    7.4732    7.4229   23.6034 S   0  0  0  0  0  0  0  0  0  0  0  0
  1 11  4  0
  1 21  4  0
  2  4  1  0
  2  8  1  0
  2 11  1  0
  3 10  4  0
  3 14  4  0
  4  5  1  0
  4 18  2  0
  6 12  1  0
  6 17  4  0
  6 23  4  0
  7  9  1  0
  7 13  4  0
  7 19  4  0
  9 20  1  0
 10 19  4  0
 11 25  4  0
 13 14  4  0
 15 16  4  0
 15 17  4  0
 15 21  4  0
 16 24  1  0
 16 25  4  0
 20 24  1  0
 20 26  2  0
 21 23  4  0
 22 23  1  0
M  END
$$$$

 Created by Python create_sdf_string function

 26 28  0  0  0  0  0  0  0  0999 V2000
   12.4311    8.7072   19.4379 N   0  0  0  0  0  0  0  0  0  0  0  0
   11.7766   10.8583   18.7405 N   0  0  0  0  0  0  0  0  0  0  0  0
    6.1929    2.6053   21.1579 C   0  0  0  0  0  0  0  0  0  0  0  0
   10.7858   11.8014   18.5133 C   0  0  0  0  0  0  0  0  0  0  0  0
   11.0420   12.8950   17.5662 C   0  0  0  0  0  0  0  0  0  0  0  0
   12.3758    5.4025   20.8088 C   0  0  0  0  0  0  0  0  0  0  0  0
    7.7730    4.8140   21.7910 C   0  0  0  0  0  0  0  0  0  0  0  0
   13.0326   11.0929   18.1586 C   0  0  0  0  0  0  0  0  0  0  0  0
    8.6925    5.8763   21.9856 N   0  0  0  0  0  0  0  0  0  0  0  0
    5.6711    3.5495   22.0285 C   0  0  0  0  0  0  0  0  0  0  0  0
   11.5370    9.7153   19.5200 C   0  0  0  0  0  0  0  0  0  0  0  0
   12.8143    4.0880   20.9826 C   0  0  0  0  0  0  0  0  0  0  0  0
    8.2300    3.8216   20.9729 C   0  0  0  0  0  0  0  0  0  0  0  0
    7.4739    2.7327   20.6511 C   0  0  0  0  0  0  0  0  0  0  0  0
   11.1580    7.3013   20.8500 C   0  0  0  0  0  0  0  0  0  0  0  0
   10.2633    8.3704   21.0569 C   0  0  0  0  0  0  0  0  0  0  0  0
   11.1780    5.9579   21.2758 N   0  0  0  0  0  0  0  0  0  0  0  0
    9.7455   11.7182   19.0589 O   0  0  0  0  0  0  0  0  0  0  0  0
    6.4694    4.6563   22.3208 C   0  0  0  0  0  0  0  0  0  0  0  0
    8.5475    7.1386   22.4235 C   0  0  0  0  0  0  0  0  0  0  0  0
   12.2719    7.5194   20.0734 C   0  0  0  0  0  0  0  0  0  0  0  0
   14.2290    6.2330   19.4291 C   0  0  0  0  0  0  0  0  0  0  0  0
   13.0717    6.3498   20.0616 N   0  0  0  0  0  0  0  0  0  0  0  0
    9.2216    8.2036   21.9308 N   0  0  0  0  0  0  0  0  0  0  0  0
   10.4546    9.5221   20.3647 C   0  0  0  0  0  0  0  0  0  0  0  0
    7.4950    7.3308   23.6078 S   0  0  0  0  0  0  0  0  0  0  0  0
  1 11  4  0
  1 21  4  0
  2  4  1  0
  2  8  1  0
  2 11  1  0
  3 10  4  0
  3 14  4  0
  4  5  1  0
  4 18  2  0
  6 12  1  0
  6 17  4  0
  6 23  4  0
  7  9  1  0
  7 13  4  0
  7 19  4  0
  9 20  1  0
 10 19  4  0
 11 25  4  0
 13 14  4  0
 15 16  4  0
 15 17  4  0
 15 21  4  0
 16 24  1  0
 16 25  4  0
 20 24  1  0
 20 26  2  0
 21 23  4  0
 22 23  1  0
M  END
$$$$

 Created by Python create_sdf_string function

 26 28  0  0  0  0  0  0  0  0999 V2000
   12.4607    8.6925   19.4310 N   0  0  0  0  0  0  0  0  0  0  0  0
   11.7976   10.8486   18.7583 N   0  0  0  0  0  0  0  0  0  0  0  0
    6.1593    2.6527   21.1266 C   0  0  0  0  0  0  0  0  0  0  0  0
   10.7947   11.8091   18.5059 C   0  0  0  0  0  0  0  0  0  0  0  0
   11.1013   12.9185   17.5710 C   0  0  0  0  0  0  0  0  0  0  0  0
   12.3701    5.4059   20.8028 C   0  0  0  0  0  0  0  0  0  0  0  0
    7.7811    4.7968   21.7543 C   0  0  0  0  0  0  0  0  0  0  0  0
   13.0662   11.0661   18.1618 C   0  0  0  0  0  0  0  0  0  0  0  0
    8.6637    5.8582   21.9492 N   0  0  0  0  0  0  0  0  0  0  0  0
    5.6674    3.6006   21.9659 C   0  0  0  0  0  0  0  0  0  0  0  0
   11.5504    9.6863   19.5236 C   0  0  0  0  0  0  0  0  0  0  0  0
   12.8513    4.0919   20.9810 C   0  0  0  0  0  0  0  0  0  0  0  0
    8.2266    3.7870   20.9459 C   0  0  0  0  0  0  0  0  0  0  0  0
    7.4514    2.7025   20.6514 C   0  0  0  0  0  0  0  0  0  0  0  0
   11.1668    7.2972   20.8651 C   0  0  0  0  0  0  0  0  0  0  0  0
   10.2609    8.3607   21.0545 C   0  0  0  0  0  0  0  0  0  0  0  0
   11.2095    5.9527   21.3176 N   0  0  0  0  0  0  0  0  0  0  0  0
    9.7627   11.7371   19.0226 O   0  0  0  0  0  0  0  0  0  0  0  0
    6.4940    4.6857   22.3012 C   0  0  0  0  0  0  0  0  0  0  0  0
    8.5152    7.1370   22.3876 C   0  0  0  0  0  0  0  0  0  0  0  0
   12.2603    7.5197   20.0713 C   0  0  0  0  0  0  0  0  0  0  0  0
   14.2100    6.2095   19.4008 C   0  0  0  0  0  0  0  0  0  0  0  0
   13.0376    6.3632   20.0375 N   0  0  0  0  0  0  0  0  0  0  0  0
    9.2026    8.2109   21.9349 N   0  0  0  0  0  0  0  0  0  0  0  0
   10.4522    9.4982   20.3515 C   0  0  0  0  0  0  0  0  0  0  0  0
    7.4336    7.3101   23.5066 S   0  0  0  0  0  0  0  0  0  0  0  0
  1 11  4  0
  1 21  4  0
  2  4  1  0
  2  8  1  0
  2 11  1  0
  3 10  4  0
  3 14  4  0
  4  5  1  0
  4 18  2  0
  6 12  1  0
  6 17  4  0
  6 23  4  0
  7  9  1  0
  7 13  4  0
  7 19  4  0
  9 20  1  0
 10 19  4  0
 11 25  4  0
 13 14  4  0
 15 16  4  0
 15 17  4  0
 15 21  4  0
 16 24  1  0
 16 25  4  0
 20 24  1  0
 20 26  2  0
 21 23  4  0
 22 23  1  0
M  END
$$$$

 Created by Python create_sdf_string function

 26 28  0  0  0  0  0  0  0  0999 V2000
   12.4513    8.6855   19.4282 N   0  0  0  0  0  0  0  0  0  0  0  0
   11.7837   10.8163   18.7405 N   0  0  0  0  0  0  0  0  0  0  0  0
    6.1588    2.6286   21.0945 C   0  0  0  0  0  0  0  0  0  0  0  0
   10.7993   11.7827   18.5096 C   0  0  0  0  0  0  0  0  0  0  0  0
   11.1606   12.8659   17.5628 C   0  0  0  0  0  0  0  0  0  0  0  0
   12.3984    5.4123   20.8156 C   0  0  0  0  0  0  0  0  0  0  0  0
    7.7766    4.7794   21.7306 C   0  0  0  0  0  0  0  0  0  0  0  0
   13.0313   11.1264   18.1063 C   0  0  0  0  0  0  0  0  0  0  0  0
    8.6580    5.8536   21.9085 N   0  0  0  0  0  0  0  0  0  0  0  0
    5.6495    3.5647   21.9472 C   0  0  0  0  0  0  0  0  0  0  0  0
   11.5438    9.6760   19.5008 C   0  0  0  0  0  0  0  0  0  0  0  0
   12.8603    4.1004   20.9752 C   0  0  0  0  0  0  0  0  0  0  0  0
    8.2420    3.7501   20.9328 C   0  0  0  0  0  0  0  0  0  0  0  0
    7.4528    2.6777   20.6055 C   0  0  0  0  0  0  0  0  0  0  0  0
   11.1616    7.2843   20.8604 C   0  0  0  0  0  0  0  0  0  0  0  0
   10.2639    8.3426   21.0483 C   0  0  0  0  0  0  0  0  0  0  0  0
   11.1976    5.9451   21.3093 N   0  0  0  0  0  0  0  0  0  0  0  0
    9.7587   11.7040   19.0299 O   0  0  0  0  0  0  0  0  0  0  0  0
    6.4612    4.6620   22.2753 C   0  0  0  0  0  0  0  0  0  0  0  0
    8.4871    7.0959   22.3855 C   0  0  0  0  0  0  0  0  0  0  0  0
   12.2704    7.5112   20.0782 C   0  0  0  0  0  0  0  0  0  0  0  0
   14.2707    6.2410   19.3954 C   0  0  0  0  0  0  0  0  0  0  0  0
   13.0743    6.3643   20.0648 N   0  0  0  0  0  0  0  0  0  0  0  0
    9.2068    8.1841   21.9496 N   0  0  0  0  0  0  0  0  0  0  0  0
   10.4543    9.4860   20.3337 C   0  0  0  0  0  0  0  0  0  0  0  0
    7.4300    7.2560   23.4978 S   0  0  0  0  0  0  0  0  0  0  0  0
  1 11  4  0
  1 21  4  0
  2  4  1  0
  2  8  1  0
  2 11  1  0
  3 10  4  0
  3 14  4  0
  4  5  1  0
  4 18  2  0
  6 12  1  0
  6 17  4  0
  6 23  4  0
  7  9  1  0
  7 13  4  0
  7 19  4  0
  9 20  1  0
 10 19  4  0
 11 25  4  0
 13 14  4  0
 15 16  4  0
 15 17  4  0
 15 21  4  0
 16 24  1  0
 16 25  4  0
 20 24  1  0
 20 26  2  0
 21 23  4  0
 22 23  1  0
M  END
$$$$

 Created by Python create_sdf_string function

 26 28  0  0  0  0  0  0  0  0999 V2000
   12.4494    8.6734   19.4380 N   0  0  0  0  0  0  0  0  0  0  0  0
   11.7801   10.8160   18.7154 N   0  0  0  0  0  0  0  0  0  0  0  0
    6.1616    2.6013   21.0806 C   0  0  0  0  0  0  0  0  0  0  0  0
   10.8178   11.7995   18.4961 C   0  0  0  0  0  0  0  0  0  0  0  0
   11.1576   12.8781   17.5769 C   0  0  0  0  0  0  0  0  0  0  0  0
   12.3972    5.4192   20.7907 C   0  0  0  0  0  0  0  0  0  0  0  0
    7.7668    4.7546   21.7209 C   0  0  0  0  0  0  0  0  0  0  0  0
   13.0261   11.0851   18.0883 C   0  0  0  0  0  0  0  0  0  0  0  0
    8.6371    5.8314   21.9041 N   0  0  0  0  0  0  0  0  0  0  0  0
    5.6634    3.5532   21.9199 C   0  0  0  0  0  0  0  0  0  0  0  0
   11.5417    9.6575   19.4936 C   0  0  0  0  0  0  0  0  0  0  0  0
   12.8884    4.1170   20.9697 C   0  0  0  0  0  0  0  0  0  0  0  0
    8.2533    3.7226   20.9436 C   0  0  0  0  0  0  0  0  0  0  0  0
    7.4717    2.6520   20.6166 C   0  0  0  0  0  0  0  0  0  0  0  0
   11.1456    7.2831   20.8535 C   0  0  0  0  0  0  0  0  0  0  0  0
   10.2484    8.3337   21.0227 C   0  0  0  0  0  0  0  0  0  0  0  0
   11.2116    5.9516   21.2957 N   0  0  0  0  0  0  0  0  0  0  0  0
    9.7679   11.7038   19.0175 O   0  0  0  0  0  0  0  0  0  0  0  0
    6.4643    4.6482   22.2594 C   0  0  0  0  0  0  0  0  0  0  0  0
    8.4882    7.0743   22.3618 C   0  0  0  0  0  0  0  0  0  0  0  0
   12.2501    7.5009   20.0735 C   0  0  0  0  0  0  0  0  0  0  0  0
   14.2656    6.2422   19.4147 C   0  0  0  0  0  0  0  0  0  0  0  0
   13.0637    6.3544   20.0377 N   0  0  0  0  0  0  0  0  0  0  0  0
    9.2043    8.1318   21.9059 N   0  0  0  0  0  0  0  0  0  0  0  0
   10.4490    9.4724   20.3030 C   0  0  0  0  0  0  0  0  0  0  0  0
    7.4074    7.2602   23.4862 S   0  0  0  0  0  0  0  0  0  0  0  0
  1 11  4  0
  1 21  4  0
  2  4  1  0
  2  8  1  0
  2 11  1  0
  3 10  4  0
  3 14  4  0
  4  5  1  0
  4 18  2  0
  6 12  1  0
  6 17  4  0
  6 23  4  0
  7  9  1  0
  7 13  4  0
  7 19  4  0
  9 20  1  0
 10 19  4  0
 11 25  4  0
 13 14  4  0
 15 16  4  0
 15 17  4  0
 15 21  4  0
 16 24  1  0
 16 25  4  0
 20 24  1  0
 20 26  2  0
 21 23  4  0
 22 23  1  0
M  END
$$$$

 Created by Python create_sdf_string function

 26 28  0  0  0  0  0  0  0  0999 V2000
   12.4533    8.6792   19.3954 N   0  0  0  0  0  0  0  0  0  0  0  0
   11.7960   10.8140   18.6962 N   0  0  0  0  0  0  0  0  0  0  0  0
    6.1571    2.6219   21.0825 C   0  0  0  0  0  0  0  0  0  0  0  0
   10.8406   11.7873   18.5024 C   0  0  0  0  0  0  0  0  0  0  0  0
   11.1570   12.8735   17.5963 C   0  0  0  0  0  0  0  0  0  0  0  0
   12.3969    5.4251   20.7805 C   0  0  0  0  0  0  0  0  0  0  0  0
    7.7769    4.7271   21.7167 C   0  0  0  0  0  0  0  0  0  0  0  0
   13.0345   11.0295   18.0771 C   0  0  0  0  0  0  0  0  0  0  0  0
    8.6518    5.8025   21.8984 N   0  0  0  0  0  0  0  0  0  0  0  0
    5.6683    3.5636   21.9226 C   0  0  0  0  0  0  0  0  0  0  0  0
   11.5330    9.6761   19.4779 C   0  0  0  0  0  0  0  0  0  0  0  0
   12.9074    4.1306   20.9510 C   0  0  0  0  0  0  0  0  0  0  0  0
    8.2430    3.6982   20.9313 C   0  0  0  0  0  0  0  0  0  0  0  0
    7.4340    2.6489   20.5956 C   0  0  0  0  0  0  0  0  0  0  0  0
   11.1565    7.2860   20.8158 C   0  0  0  0  0  0  0  0  0  0  0  0
   10.2393    8.3164   21.0193 C   0  0  0  0  0  0  0  0  0  0  0  0
   11.2069    5.9658   21.2784 N   0  0  0  0  0  0  0  0  0  0  0  0
    9.7796   11.7030   19.0287 O   0  0  0  0  0  0  0  0  0  0  0  0
    6.4872    4.6340   22.2554 C   0  0  0  0  0  0  0  0  0  0  0  0
    8.5000    7.0655   22.3411 C   0  0  0  0  0  0  0  0  0  0  0  0
   12.2662    7.5076   20.0257 C   0  0  0  0  0  0  0  0  0  0  0  0
   14.2587    6.1995   19.4093 C   0  0  0  0  0  0  0  0  0  0  0  0
   13.0739    6.3526   20.0090 N   0  0  0  0  0  0  0  0  0  0  0  0
    9.2011    8.1400   21.8933 N   0  0  0  0  0  0  0  0  0  0  0  0
   10.4417    9.4619   20.3163 C   0  0  0  0  0  0  0  0  0  0  0  0
    7.4228    7.2493   23.4271 S   0  0  0  0  0  0  0  0  0  0  0  0
  1 11  4  0
  1 21  4  0
  2  4  1  0
  2  8  1  0
  2 11  1  0
  3 10  4  0
  3 14  4  0
  4  5  1  0
  4 18  2  0
  6 12  1  0
  6 17  4  0
  6 23  4  0
  7  9  1  0
  7 13  4  0
  7 19  4  0
  9 20  1  0
 10 19  4  0
 11 25  4  0
 13 14  4  0
 15 16  4  0
 15 17  4  0
 15 21  4  0
 16 24  1  0
 16 25  4  0
 20 24  1  0
 20 26  2  0
 21 23  4  0
 22 23  1  0
M  END
$$$$

 Created by Python create_sdf_string function

 26 28  0  0  0  0  0  0  0  0999 V2000
   12.4452    8.6726   19.3864 N   0  0  0  0  0  0  0  0  0  0  0  0
   11.8099   10.8196   18.6750 N   0  0  0  0  0  0  0  0  0  0  0  0
    6.1276    2.6047   21.0796 C   0  0  0  0  0  0  0  0  0  0  0  0
   10.8521   11.7969   18.4838 C   0  0  0  0  0  0  0  0  0  0  0  0
   11.1786   12.9207   17.5721 C   0  0  0  0  0  0  0  0  0  0  0  0
   12.4100    5.4314   20.7914 C   0  0  0  0  0  0  0  0  0  0  0  0
    7.7669    4.7126   21.7059 C   0  0  0  0  0  0  0  0  0  0  0  0
   13.0440   10.9844   18.0530 C   0  0  0  0  0  0  0  0  0  0  0  0
    8.6534    5.7781   21.8946 N   0  0  0  0  0  0  0  0  0  0  0  0
    5.6804    3.5728   21.9160 C   0  0  0  0  0  0  0  0  0  0  0  0
   11.5568    9.6827   19.4581 C   0  0  0  0  0  0  0  0  0  0  0  0
   12.9433    4.1512   20.9433 C   0  0  0  0  0  0  0  0  0  0  0  0
    8.2354    3.6732   20.9130 C   0  0  0  0  0  0  0  0  0  0  0  0
    7.3997    2.6347   20.5852 C   0  0  0  0  0  0  0  0  0  0  0  0
   11.1673    7.2777   20.8138 C   0  0  0  0  0  0  0  0  0  0  0  0
   10.2660    8.3233   21.0023 C   0  0  0  0  0  0  0  0  0  0  0  0
   11.2123    5.9566   21.2726 N   0  0  0  0  0  0  0  0  0  0  0  0
    9.7990   11.6862   19.0535 O   0  0  0  0  0  0  0  0  0  0  0  0
    6.4836    4.6189   22.2402 C   0  0  0  0  0  0  0  0  0  0  0  0
    8.4883    7.0432   22.3410 C   0  0  0  0  0  0  0  0  0  0  0  0
   12.2659    7.5095   20.0272 C   0  0  0  0  0  0  0  0  0  0  0  0
   14.2283    6.2139   19.3768 C   0  0  0  0  0  0  0  0  0  0  0  0
   13.0724    6.3714   20.0217 N   0  0  0  0  0  0  0  0  0  0  0  0
    9.2133    8.1255   21.8876 N   0  0  0  0  0  0  0  0  0  0  0  0
   10.4602    9.4831   20.3072 C   0  0  0  0  0  0  0  0  0  0  0  0
    7.4530    7.2077   23.3599 S   0  0  0  0  0  0  0  0  0  0  0  0
  1 11  4  0
  1 21  4  0
  2  4  1  0
  2  8  1  0
  2 11  1  0
  3 10  4  0
  3 14  4  0
  4  5  1  0
  4 18  2  0
  6 12  1  0
  6 17  4  0
  6 23  4  0
  7  9  1  0
  7 13  4  0
  7 19  4  0
  9 20  1  0
 10 19  4  0
 11 25  4  0
 13 14  4  0
 15 16  4  0
 15 17  4  0
 15 21  4  0
 16 24  1  0
 16 25  4  0
 20 24  1  0
 20 26  2  0
 21 23  4  0
 22 23  1  0
M  END
$$$$

 Created by Python create_sdf_string function

 26 28  0  0  0  0  0  0  0  0999 V2000
   12.4394    8.6768   19.4033 N   0  0  0  0  0  0  0  0  0  0  0  0
   11.8030   10.8300   18.6756 N   0  0  0  0  0  0  0  0  0  0  0  0
    6.1351    2.5855   21.0931 C   0  0  0  0  0  0  0  0  0  0  0  0
   10.8531   11.8037   18.4787 C   0  0  0  0  0  0  0  0  0  0  0  0
   11.1856   12.9339   17.5710 C   0  0  0  0  0  0  0  0  0  0  0  0
   12.4058    5.4416   20.8027 C   0  0  0  0  0  0  0  0  0  0  0  0
    7.7657    4.6988   21.7001 C   0  0  0  0  0  0  0  0  0  0  0  0
   13.0162   10.9858   18.0052 C   0  0  0  0  0  0  0  0  0  0  0  0
    8.6524    5.7521   21.8621 N   0  0  0  0  0  0  0  0  0  0  0  0
    5.6860    3.5682   21.9002 C   0  0  0  0  0  0  0  0  0  0  0  0
   11.5547    9.6900   19.4560 C   0  0  0  0  0  0  0  0  0  0  0  0
   12.9589    4.1557   20.9569 C   0  0  0  0  0  0  0  0  0  0  0  0
    8.2248    3.6571   20.9081 C   0  0  0  0  0  0  0  0  0  0  0  0
    7.4044    2.6207   20.5927 C   0  0  0  0  0  0  0  0  0  0  0  0
   11.1607    7.2823   20.8147 C   0  0  0  0  0  0  0  0  0  0  0  0
   10.2505    8.3161   20.9919 C   0  0  0  0  0  0  0  0  0  0  0  0
   11.2031    5.9584   21.2804 N   0  0  0  0  0  0  0  0  0  0  0  0
    9.8127   11.6744   19.0581 O   0  0  0  0  0  0  0  0  0  0  0  0
    6.4794    4.6220   22.2253 C   0  0  0  0  0  0  0  0  0  0  0  0
    8.4707    7.0205   22.3120 C   0  0  0  0  0  0  0  0  0  0  0  0
   12.2691    7.5190   20.0357 C   0  0  0  0  0  0  0  0  0  0  0  0
   14.2431    6.2090   19.3849 C   0  0  0  0  0  0  0  0  0  0  0  0
   13.0734    6.3827   20.0368 N   0  0  0  0  0  0  0  0  0  0  0  0
    9.1931    8.0967   21.8471 N   0  0  0  0  0  0  0  0  0  0  0  0
   10.4447    9.4851   20.2989 C   0  0  0  0  0  0  0  0  0  0  0  0
    7.4658    7.2027   23.3310 S   0  0  0  0  0  0  0  0  0  0  0  0
  1 11  4  0
  1 21  4  0
  2  4  1  0
  2  8  1  0
  2 11  1  0
  3 10  4  0
  3 14  4  0
  4  5  1  0
  4 18  2  0
  6 12  1  0
  6 17  4  0
  6 23  4  0
  7  9  1  0
  7 13  4  0
  7 19  4  0
  9 20  1  0
 10 19  4  0
 11 25  4  0
 13 14  4  0
 15 16  4  0
 15 17  4  0
 15 21  4  0
 16 24  1  0
 16 25  4  0
 20 24  1  0
 20 26  2  0
 21 23  4  0
 22 23  1  0
M  END
$$$$

 Created by Python create_sdf_string function

 26 28  0  0  0  0  0  0  0  0999 V2000
   12.4475    8.6820   19.3969 N   0  0  0  0  0  0  0  0  0  0  0  0
   11.8157   10.8324   18.6842 N   0  0  0  0  0  0  0  0  0  0  0  0
    6.1392    2.5872   21.0856 C   0  0  0  0  0  0  0  0  0  0  0  0
   10.8660   11.8083   18.4864 C   0  0  0  0  0  0  0  0  0  0  0  0
   11.1907   12.9242   17.5784 C   0  0  0  0  0  0  0  0  0  0  0  0
   12.3927    5.4376   20.7913 C   0  0  0  0  0  0  0  0  0  0  0  0
    7.7630    4.6851   21.7060 C   0  0  0  0  0  0  0  0  0  0  0  0
   13.0192   10.9864   18.0068 C   0  0  0  0  0  0  0  0  0  0  0  0
    8.6532    5.7422   21.8790 N   0  0  0  0  0  0  0  0  0  0  0  0
    5.6848    3.5582   21.9077 C   0  0  0  0  0  0  0  0  0  0  0  0
   11.5615    9.6878   19.4564 C   0  0  0  0  0  0  0  0  0  0  0  0
   12.9517    4.1584   20.9385 C   0  0  0  0  0  0  0  0  0  0  0  0
    8.2289    3.6552   20.9098 C   0  0  0  0  0  0  0  0  0  0  0  0
    7.4086    2.6204   20.5809 C   0  0  0  0  0  0  0  0  0  0  0  0
   11.1597    7.2874   20.8019 C   0  0  0  0  0  0  0  0  0  0  0  0
   10.2540    8.3195   20.9941 C   0  0  0  0  0  0  0  0  0  0  0  0
   11.1826    5.9587   21.2566 N   0  0  0  0  0  0  0  0  0  0  0  0
    9.8427   11.6800   19.0574 O   0  0  0  0  0  0  0  0  0  0  0  0
    6.4761    4.6145   22.2318 C   0  0  0  0  0  0  0  0  0  0  0  0
    8.4736    7.0165   22.3097 C   0  0  0  0  0  0  0  0  0  0  0  0
   12.2734    7.5189   20.0263 C   0  0  0  0  0  0  0  0  0  0  0  0
   14.2547    6.2168   19.3876 C   0  0  0  0  0  0  0  0  0  0  0  0
   13.0741    6.3741   20.0309 N   0  0  0  0  0  0  0  0  0  0  0  0
    9.2043    8.0895   21.8590 N   0  0  0  0  0  0  0  0  0  0  0  0
   10.4563    9.4820   20.2974 C   0  0  0  0  0  0  0  0  0  0  0  0
    7.4776    7.1783   23.2615 S   0  0  0  0  0  0  0  0  0  0  0  0
  1 11  4  0
  1 21  4  0
  2  4  1  0
  2  8  1  0
  2 11  1  0
  3 10  4  0
  3 14  4  0
  4  5  1  0
  4 18  2  0
  6 12  1  0
  6 17  4  0
  6 23  4  0
  7  9  1  0
  7 13  4  0
  7 19  4  0
  9 20  1  0
 10 19  4  0
 11 25  4  0
 13 14  4  0
 15 16  4  0
 15 17  4  0
 15 21  4  0
 16 24  1  0
 16 25  4  0
 20 24  1  0
 20 26  2  0
 21 23  4  0
 22 23  1  0
M  END
$$$$

 Created by Python create_sdf_string function

 26 28  0  0  0  0  0  0  0  0999 V2000
   12.4525    8.6733   19.4047 N   0  0  0  0  0  0  0  0  0  0  0  0
   11.8183   10.8207   18.6826 N   0  0  0  0  0  0  0  0  0  0  0  0
    6.1246    2.5747   21.0777 C   0  0  0  0  0  0  0  0  0  0  0  0
   10.8801   11.8041   18.4878 C   0  0  0  0  0  0  0  0  0  0  0  0
   11.2022   12.9189   17.5725 C   0  0  0  0  0  0  0  0  0  0  0  0
   12.3858    5.4280   20.7813 C   0  0  0  0  0  0  0  0  0  0  0  0
    7.7642    4.6850   21.7007 C   0  0  0  0  0  0  0  0  0  0  0  0
   13.0085   11.0004   18.0052 C   0  0  0  0  0  0  0  0  0  0  0  0
    8.6798    5.7317   21.8815 N   0  0  0  0  0  0  0  0  0  0  0  0
    5.6777    3.5438   21.9137 C   0  0  0  0  0  0  0  0  0  0  0  0
   11.5733    9.6845   19.4592 C   0  0  0  0  0  0  0  0  0  0  0  0
   12.9483    4.1525   20.9238 C   0  0  0  0  0  0  0  0  0  0  0  0
    8.2264    3.6520   20.8964 C   0  0  0  0  0  0  0  0  0  0  0  0
    7.4037    2.6070   20.5629 C   0  0  0  0  0  0  0  0  0  0  0  0
   11.1572    7.2780   20.8110 C   0  0  0  0  0  0  0  0  0  0  0  0
   10.2616    8.3186   20.9992 C   0  0  0  0  0  0  0  0  0  0  0  0
   11.1694    5.9444   21.2497 N   0  0  0  0  0  0  0  0  0  0  0  0
    9.8599   11.6734   19.0629 O   0  0  0  0  0  0  0  0  0  0  0  0
    6.4688    4.5908   22.2246 C   0  0  0  0  0  0  0  0  0  0  0  0
    8.4806    7.0063   22.3032 C   0  0  0  0  0  0  0  0  0  0  0  0
   12.2717    7.5144   20.0366 C   0  0  0  0  0  0  0  0  0  0  0  0
   14.2476    6.2293   19.4054 C   0  0  0  0  0  0  0  0  0  0  0  0
   13.0703    6.3711   20.0327 N   0  0  0  0  0  0  0  0  0  0  0  0
    9.1994    8.0851   21.8526 N   0  0  0  0  0  0  0  0  0  0  0  0
   10.4721    9.4780   20.3041 C   0  0  0  0  0  0  0  0  0  0  0  0
    7.5171    7.1796   23.2174 O   0  0  0  0  0  0  0  0  0  0  0  0
  1 11  4  0
  1 21  4  0
  2  4  1  0
  2  8  1  0
  2 11  1  0
  3 10  4  0
  3 14  4  0
  4  5  1  0
  4 18  2  0
  6 12  1  0
  6 17  4  0
  6 23  4  0
  7  9  1  0
  7 13  4  0
  7 19  4  0
  9 20  1  0
 10 19  4  0
 11 25  4  0
 13 14  4  0
 15 16  4  0
 15 17  4  0
 15 21  4  0
 16 24  1  0
 16 25  4  0
 20 24  1  0
 20 26  2  0
 21 23  4  0
 22 23  1  0
M  END
$$$$

 Created by Python create_sdf_string function

 26 28  0  0  0  0  0  0  0  0999 V2000
   12.4600    8.6707   19.4117 N   0  0  0  0  0  0  0  0  0  0  0  0
   11.8275   10.8136   18.6813 N   0  0  0  0  0  0  0  0  0  0  0  0
    6.1139    2.5652   21.0684 C   0  0  0  0  0  0  0  0  0  0  0  0
   10.8990   11.8002   18.4835 C   0  0  0  0  0  0  0  0  0  0  0  0
   11.2104   12.9171   17.5678 C   0  0  0  0  0  0  0  0  0  0  0  0
   12.3827    5.4247   20.7840 C   0  0  0  0  0  0  0  0  0  0  0  0
    7.7456    4.6709   21.7016 C   0  0  0  0  0  0  0  0  0  0  0  0
   13.0212   11.0081   18.0105 C   0  0  0  0  0  0  0  0  0  0  0  0
    8.6522    5.7279   21.8822 N   0  0  0  0  0  0  0  0  0  0  0  0
    5.6621    3.5334   21.9150 C   0  0  0  0  0  0  0  0  0  0  0  0
   11.5805    9.6816   19.4528 C   0  0  0  0  0  0  0  0  0  0  0  0
   12.9616    4.1521   20.9288 C   0  0  0  0  0  0  0  0  0  0  0  0
    8.2120    3.6329   20.8896 C   0  0  0  0  0  0  0  0  0  0  0  0
    7.3933    2.5828   20.5446 C   0  0  0  0  0  0  0  0  0  0  0  0
   11.1554    7.2791   20.8061 C   0  0  0  0  0  0  0  0  0  0  0  0
   10.2557    8.3214   20.9885 C   0  0  0  0  0  0  0  0  0  0  0  0
   11.1675    5.9403   21.2442 N   0  0  0  0  0  0  0  0  0  0  0  0
    9.8796   11.6732   19.0667 O   0  0  0  0  0  0  0  0  0  0  0  0
    6.4578    4.5899   22.2315 C   0  0  0  0  0  0  0  0  0  0  0  0
    8.4641    7.0083   22.3041 C   0  0  0  0  0  0  0  0  0  0  0  0
   12.2740    7.5129   20.0426 C   0  0  0  0  0  0  0  0  0  0  0  0
   14.2544    6.2165   19.4196 C   0  0  0  0  0  0  0  0  0  0  0  0
   13.0686    6.3699   20.0382 N   0  0  0  0  0  0  0  0  0  0  0  0
    9.1933    8.0907   21.8431 N   0  0  0  0  0  0  0  0  0  0  0  0
   10.4708    9.4843   20.2922 C   0  0  0  0  0  0  0  0  0  0  0  0
    7.5500    7.1559   23.1551 O   0  0  0  0  0  0  0  0  0  0  0  0
  1 11  4  0
  1 21  4  0
  2  4  1  0
  2  8  1  0
  2 11  1  0
  3 10  4  0
  3 14  4  0
  4  5  1  0
  4 18  2  0
  6 12  1  0
  6 17  4  0
  6 23  4  0
  7  9  1  0
  7 13  4  0
  7 19  4  0
  9 20  1  0
 10 19  4  0
 11 25  4  0
 13 14  4  0
 15 16  4  0
 15 17  4  0
 15 21  4  0
 16 24  1  0
 16 25  4  0
 20 24  1  0
 20 26  2  0
 21 23  4  0
 22 23  1  0
M  END
$$$$

 Created by Python create_sdf_string function

 26 28  0  0  0  0  0  0  0  0999 V2000
   12.4616    8.6700   19.4180 N   0  0  0  0  0  0  0  0  0  0  0  0
   11.8329   10.8148   18.6769 N   0  0  0  0  0  0  0  0  0  0  0  0
    6.1021    2.5564   21.0678 C   0  0  0  0  0  0  0  0  0  0  0  0
   10.9097   11.8051   18.4804 C   0  0  0  0  0  0  0  0  0  0  0  0
   11.2280   12.9135   17.5669 C   0  0  0  0  0  0  0  0  0  0  0  0
   12.3782    5.4231   20.7777 C   0  0  0  0  0  0  0  0  0  0  0  0
    7.7365    4.6508   21.6987 C   0  0  0  0  0  0  0  0  0  0  0  0
   13.0186   11.0102   18.0020 C   0  0  0  0  0  0  0  0  0  0  0  0
    8.6628    5.7088   21.8871 N   0  0  0  0  0  0  0  0  0  0  0  0
    5.6516    3.5258   21.9140 C   0  0  0  0  0  0  0  0  0  0  0  0
   11.5863    9.6815   19.4539 C   0  0  0  0  0  0  0  0  0  0  0  0
   12.9648    4.1543   20.9205 C   0  0  0  0  0  0  0  0  0  0  0  0
    8.2089    3.6265   20.8929 C   0  0  0  0  0  0  0  0  0  0  0  0
    7.3827    2.5724   20.5432 C   0  0  0  0  0  0  0  0  0  0  0  0
   11.1529    7.2750   20.8025 C   0  0  0  0  0  0  0  0  0  0  0  0
   10.2573    8.3215   20.9827 C   0  0  0  0  0  0  0  0  0  0  0  0
   11.1606    5.9378   21.2366 N   0  0  0  0  0  0  0  0  0  0  0  0
    9.8932   11.6736   19.0677 O   0  0  0  0  0  0  0  0  0  0  0  0
    6.4470    4.5850   22.2321 C   0  0  0  0  0  0  0  0  0  0  0  0
    8.4619    6.9895   22.2968 C   0  0  0  0  0  0  0  0  0  0  0  0
   12.2747    7.5102   20.0420 C   0  0  0  0  0  0  0  0  0  0  0  0
   14.2544    6.2142   19.4191 C   0  0  0  0  0  0  0  0  0  0  0  0
   13.0695    6.3705   20.0375 N   0  0  0  0  0  0  0  0  0  0  0  0
    9.1913    8.0876   21.8361 N   0  0  0  0  0  0  0  0  0  0  0  0
   10.4739    9.4813   20.2889 C   0  0  0  0  0  0  0  0  0  0  0  0
    7.5551    7.1270   23.1200 O   0  0  0  0  0  0  0  0  0  0  0  0
  1 11  4  0
  1 21  4  0
  2  4  1  0
  2  8  1  0
  2 11  1  0
  3 10  4  0
  3 14  4  0
  4  5  1  0
  4 18  2  0
  6 12  1  0
  6 17  4  0
  6 23  4  0
  7  9  1  0
  7 13  4  0
  7 19  4  0
  9 20  1  0
 10 19  4  0
 11 25  4  0
 13 14  4  0
 15 16  4  0
 15 17  4  0
 15 21  4  0
 16 24  1  0
 16 25  4  0
 20 24  1  0
 20 26  2  0
 21 23  4  0
 22 23  1  0
M  END
$$$$

 Created by Python create_sdf_string function

 26 28  0  0  0  0  0  0  0  0999 V2000
   12.4616    8.6700   19.4180 N   0  0  0  0  0  0  0  0  0  0  0  0
   11.8329   10.8148   18.6769 N   0  0  0  0  0  0  0  0  0  0  0  0
    6.1021    2.5564   21.0678 C   0  0  0  0  0  0  0  0  0  0  0  0
   10.9097   11.8051   18.4804 C   0  0  0  0  0  0  0  0  0  0  0  0
   11.2280   12.9135   17.5669 C   0  0  0  0  0  0  0  0  0  0  0  0
   12.3782    5.4231   20.7777 C   0  0  0  0  0  0  0  0  0  0  0  0
    7.7365    4.6508   21.6987 C   0  0  0  0  0  0  0  0  0  0  0  0
   13.0186   11.0102   18.0020 C   0  0  0  0  0  0  0  0  0  0  0  0
    8.6628    5.7088   21.8871 N   0  0  0  0  0  0  0  0  0  0  0  0
    5.6516    3.5258   21.9140 C   0  0  0  0  0  0  0  0  0  0  0  0
   11.5863    9.6815   19.4539 C   0  0  0  0  0  0  0  0  0  0  0  0
   12.9648    4.1543   20.9205 C   0  0  0  0  0  0  0  0  0  0  0  0
    8.2089    3.6265   20.8929 C   0  0  0  0  0  0  0  0  0  0  0  0
    7.3827    2.5724   20.5432 C   0  0  0  0  0  0  0  0  0  0  0  0
   11.1529    7.2750   20.8025 C   0  0  0  0  0  0  0  0  0  0  0  0
   10.2573    8.3215   20.9827 C   0  0  0  0  0  0  0  0  0  0  0  0
   11.1606    5.9378   21.2366 N   0  0  0  0  0  0  0  0  0  0  0  0
    9.8932   11.6736   19.0677 O   0  0  0  0  0  0  0  0  0  0  0  0
    6.4470    4.5850   22.2321 C   0  0  0  0  0  0  0  0  0  0  0  0
    8.4619    6.9895   22.2968 C   0  0  0  0  0  0  0  0  0  0  0  0
   12.2747    7.5102   20.0420 C   0  0  0  0  0  0  0  0  0  0  0  0
   14.2544    6.2142   19.4191 C   0  0  0  0  0  0  0  0  0  0  0  0
   13.0695    6.3705   20.0375 N   0  0  0  0  0  0  0  0  0  0  0  0
    9.1913    8.0876   21.8361 N   0  0  0  0  0  0  0  0  0  0  0  0
   10.4739    9.4813   20.2889 C   0  0  0  0  0  0  0  0  0  0  0  0
    7.5551    7.1270   23.1200 O   0  0  0  0  0  0  0  0  0  0  0  0
  1 11  4  0
  1 21  4  0
  2  4  1  0
  2  8  1  0
  2 11  1  0
  3 10  4  0
  3 14  4  0
  4  5  1  0
  4 18  2  0
  6 12  1  0
  6 17  4  0
  6 23  4  0
  7  9  1  0
  7 13  4  0
  7 19  4  0
  9 20  1  0
 10 19  4  0
 11 25  4  0
 13 14  4  0
 15 16  4  0
 15 17  4  0
 15 21  4  0
 16 24  1  0
 16 25  4  0
 20 24  1  0
 20 26  2  0
 21 23  4  0
 22 23  1  0
M  END
$$$$

 Created by Python create_sdf_string function

 26 28  0  0  0  0  0  0  0  0999 V2000
   12.4616    8.6700   19.4180 N   0  0  0  0  0  0  0  0  0  0  0  0
   11.8329   10.8148   18.6769 N   0  0  0  0  0  0  0  0  0  0  0  0
    6.1021    2.5564   21.0678 C   0  0  0  0  0  0  0  0  0  0  0  0
   10.9097   11.8051   18.4804 C   0  0  0  0  0  0  0  0  0  0  0  0
   11.2280   12.9135   17.5669 C   0  0  0  0  0  0  0  0  0  0  0  0
   12.3782    5.4231   20.7777 C   0  0  0  0  0  0  0  0  0  0  0  0
    7.7365    4.6508   21.6987 C   0  0  0  0  0  0  0  0  0  0  0  0
   13.0186   11.0102   18.0020 C   0  0  0  0  0  0  0  0  0  0  0  0
    8.6628    5.7088   21.8871 N   0  0  0  0  0  0  0  0  0  0  0  0
    5.6516    3.5258   21.9140 C   0  0  0  0  0  0  0  0  0  0  0  0
   11.5863    9.6815   19.4539 C   0  0  0  0  0  0  0  0  0  0  0  0
   12.9648    4.1543   20.9205 C   0  0  0  0  0  0  0  0  0  0  0  0
    8.2089    3.6265   20.8929 C   0  0  0  0  0  0  0  0  0  0  0  0
    7.3827    2.5724   20.5432 C   0  0  0  0  0  0  0  0  0  0  0  0
   11.1529    7.2750   20.8025 C   0  0  0  0  0  0  0  0  0  0  0  0
   10.2573    8.3215   20.9827 C   0  0  0  0  0  0  0  0  0  0  0  0
   11.1606    5.9378   21.2366 N   0  0  0  0  0  0  0  0  0  0  0  0
    9.8932   11.6736   19.0677 O   0  0  0  0  0  0  0  0  0  0  0  0
    6.4470    4.5850   22.2321 C   0  0  0  0  0  0  0  0  0  0  0  0
    8.4619    6.9895   22.2968 C   0  0  0  0  0  0  0  0  0  0  0  0
   12.2747    7.5102   20.0420 C   0  0  0  0  0  0  0  0  0  0  0  0
   14.2544    6.2142   19.4191 C   0  0  0  0  0  0  0  0  0  0  0  0
   13.0695    6.3705   20.0375 N   0  0  0  0  0  0  0  0  0  0  0  0
    9.1913    8.0876   21.8361 N   0  0  0  0  0  0  0  0  0  0  0  0
   10.4739    9.4813   20.2889 C   0  0  0  0  0  0  0  0  0  0  0  0
    7.5551    7.1270   23.1200 O   0  0  0  0  0  0  0  0  0  0  0  0
  1 11  4  0
  1 21  4  0
  2  4  1  0
  2  8  1  0
  2 11  1  0
  3 10  4  0
  3 14  4  0
  4  5  1  0
  4 18  2  0
  6 12  1  0
  6 17  4  0
  6 23  4  0
  7  9  1  0
  7 13  4  0
  7 19  4  0
  9 20  1  0
 10 19  4  0
 11 25  4  0
 13 14  4  0
 15 16  4  0
 15 17  4  0
 15 21  4  0
 16 24  1  0
 16 25  4  0
 20 24  1  0
 20 26  2  0
 21 23  4  0
 22 23  1  0
M  END
$$$$

 Created by Python create_sdf_string function

 26 28  0  0  0  0  0  0  0  0999 V2000
   12.4616    8.6700   19.4180 N   0  0  0  0  0  0  0  0  0  0  0  0
   11.8329   10.8148   18.6769 N   0  0  0  0  0  0  0  0  0  0  0  0
    6.1021    2.5564   21.0678 C   0  0  0  0  0  0  0  0  0  0  0  0
   10.9097   11.8051   18.4804 C   0  0  0  0  0  0  0  0  0  0  0  0
   11.2280   12.9135   17.5669 C   0  0  0  0  0  0  0  0  0  0  0  0
   12.3782    5.4231   20.7777 C   0  0  0  0  0  0  0  0  0  0  0  0
    7.7365    4.6508   21.6987 C   0  0  0  0  0  0  0  0  0  0  0  0
   13.0186   11.0102   18.0020 C   0  0  0  0  0  0  0  0  0  0  0  0
    8.6628    5.7088   21.8871 N   0  0  0  0  0  0  0  0  0  0  0  0
    5.6516    3.5258   21.9140 C   0  0  0  0  0  0  0  0  0  0  0  0
   11.5863    9.6815   19.4539 C   0  0  0  0  0  0  0  0  0  0  0  0
   12.9648    4.1543   20.9205 C   0  0  0  0  0  0  0  0  0  0  0  0
    8.2089    3.6265   20.8929 C   0  0  0  0  0  0  0  0  0  0  0  0
    7.3827    2.5724   20.5432 C   0  0  0  0  0  0  0  0  0  0  0  0
   11.1529    7.2750   20.8025 C   0  0  0  0  0  0  0  0  0  0  0  0
   10.2573    8.3215   20.9827 C   0  0  0  0  0  0  0  0  0  0  0  0
   11.1606    5.9378   21.2366 N   0  0  0  0  0  0  0  0  0  0  0  0
    9.8932   11.6736   19.0677 O   0  0  0  0  0  0  0  0  0  0  0  0
    6.4470    4.5850   22.2321 C   0  0  0  0  0  0  0  0  0  0  0  0
    8.4619    6.9895   22.2968 C   0  0  0  0  0  0  0  0  0  0  0  0
   12.2747    7.5102   20.0420 C   0  0  0  0  0  0  0  0  0  0  0  0
   14.2544    6.2142   19.4191 C   0  0  0  0  0  0  0  0  0  0  0  0
   13.0695    6.3705   20.0375 N   0  0  0  0  0  0  0  0  0  0  0  0
    9.1913    8.0876   21.8361 N   0  0  0  0  0  0  0  0  0  0  0  0
   10.4739    9.4813   20.2889 C   0  0  0  0  0  0  0  0  0  0  0  0
    7.5551    7.1270   23.1200 O   0  0  0  0  0  0  0  0  0  0  0  0
  1 11  4  0
  1 21  4  0
  2  4  1  0
  2  8  1  0
  2 11  1  0
  3 10  4  0
  3 14  4  0
  4  5  1  0
  4 18  2  0
  6 12  1  0
  6 17  4  0
  6 23  4  0
  7  9  1  0
  7 13  4  0
  7 19  4  0
  9 20  1  0
 10 19  4  0
 11 25  4  0
 13 14  4  0
 15 16  4  0
 15 17  4  0
 15 21  4  0
 16 24  1  0
 16 25  4  0
 20 24  1  0
 20 26  2  0
 21 23  4  0
 22 23  1  0
M  END
$$$$

 Created by Python create_sdf_string function

 26 28  0  0  0  0  0  0  0  0999 V2000
   12.4616    8.6700   19.4180 N   0  0  0  0  0  0  0  0  0  0  0  0
   11.8329   10.8148   18.6769 N   0  0  0  0  0  0  0  0  0  0  0  0
    6.1021    2.5564   21.0678 C   0  0  0  0  0  0  0  0  0  0  0  0
   10.9097   11.8051   18.4804 C   0  0  0  0  0  0  0  0  0  0  0  0
   11.2280   12.9135   17.5669 C   0  0  0  0  0  0  0  0  0  0  0  0
   12.3782    5.4231   20.7777 C   0  0  0  0  0  0  0  0  0  0  0  0
    7.7365    4.6508   21.6987 C   0  0  0  0  0  0  0  0  0  0  0  0
   13.0186   11.0102   18.0020 C   0  0  0  0  0  0  0  0  0  0  0  0
    8.6628    5.7088   21.8871 N   0  0  0  0  0  0  0  0  0  0  0  0
    5.6516    3.5258   21.9140 C   0  0  0  0  0  0  0  0  0  0  0  0
   11.5863    9.6815   19.4539 C   0  0  0  0  0  0  0  0  0  0  0  0
   12.9648    4.1543   20.9205 C   0  0  0  0  0  0  0  0  0  0  0  0
    8.2089    3.6265   20.8929 C   0  0  0  0  0  0  0  0  0  0  0  0
    7.3827    2.5724   20.5432 C   0  0  0  0  0  0  0  0  0  0  0  0
   11.1529    7.2750   20.8025 C   0  0  0  0  0  0  0  0  0  0  0  0
   10.2573    8.3215   20.9827 C   0  0  0  0  0  0  0  0  0  0  0  0
   11.1606    5.9378   21.2366 N   0  0  0  0  0  0  0  0  0  0  0  0
    9.8932   11.6736   19.0677 O   0  0  0  0  0  0  0  0  0  0  0  0
    6.4470    4.5850   22.2321 C   0  0  0  0  0  0  0  0  0  0  0  0
    8.4619    6.9895   22.2968 C   0  0  0  0  0  0  0  0  0  0  0  0
   12.2747    7.5102   20.0420 C   0  0  0  0  0  0  0  0  0  0  0  0
   14.2544    6.2142   19.4191 C   0  0  0  0  0  0  0  0  0  0  0  0
   13.0695    6.3705   20.0375 N   0  0  0  0  0  0  0  0  0  0  0  0
    9.1913    8.0876   21.8361 N   0  0  0  0  0  0  0  0  0  0  0  0
   10.4739    9.4813   20.2889 C   0  0  0  0  0  0  0  0  0  0  0  0
    7.5551    7.1270   23.1200 O   0  0  0  0  0  0  0  0  0  0  0  0
  1 11  4  0
  1 21  4  0
  2  4  1  0
  2  8  1  0
  2 11  1  0
  3 10  4  0
  3 14  4  0
  4  5  1  0
  4 18  2  0
  6 12  1  0
  6 17  4  0
  6 23  4  0
  7  9  1  0
  7 13  4  0
  7 19  4  0
  9 20  1  0
 10 19  4  0
 11 25  4  0
 13 14  4  0
 15 16  4  0
 15 17  4  0
 15 21  4  0
 16 24  1  0
 16 25  4  0
 20 24  1  0
 20 26  2  0
 21 23  4  0
 22 23  1  0
M  END
$$$$

 Created by Python create_sdf_string function

 26 28  0  0  0  0  0  0  0  0999 V2000
   12.4616    8.6700   19.4180 N   0  0  0  0  0  0  0  0  0  0  0  0
   11.8329   10.8148   18.6769 N   0  0  0  0  0  0  0  0  0  0  0  0
    6.1021    2.5564   21.0678 C   0  0  0  0  0  0  0  0  0  0  0  0
   10.9097   11.8051   18.4804 C   0  0  0  0  0  0  0  0  0  0  0  0
   11.2280   12.9135   17.5669 C   0  0  0  0  0  0  0  0  0  0  0  0
   12.3782    5.4231   20.7777 C   0  0  0  0  0  0  0  0  0  0  0  0
    7.7365    4.6508   21.6987 C   0  0  0  0  0  0  0  0  0  0  0  0
   13.0186   11.0102   18.0020 C   0  0  0  0  0  0  0  0  0  0  0  0
    8.6628    5.7088   21.8871 N   0  0  0  0  0  0  0  0  0  0  0  0
    5.6516    3.5258   21.9140 C   0  0  0  0  0  0  0  0  0  0  0  0
   11.5863    9.6815   19.4539 C   0  0  0  0  0  0  0  0  0  0  0  0
   12.9648    4.1543   20.9205 C   0  0  0  0  0  0  0  0  0  0  0  0
    8.2089    3.6265   20.8929 C   0  0  0  0  0  0  0  0  0  0  0  0
    7.3827    2.5724   20.5432 C   0  0  0  0  0  0  0  0  0  0  0  0
   11.1529    7.2750   20.8025 C   0  0  0  0  0  0  0  0  0  0  0  0
   10.2573    8.3215   20.9827 C   0  0  0  0  0  0  0  0  0  0  0  0
   11.1606    5.9378   21.2366 N   0  0  0  0  0  0  0  0  0  0  0  0
    9.8932   11.6736   19.0677 O   0  0  0  0  0  0  0  0  0  0  0  0
    6.4470    4.5850   22.2321 C   0  0  0  0  0  0  0  0  0  0  0  0
    8.4619    6.9895   22.2968 C   0  0  0  0  0  0  0  0  0  0  0  0
   12.2747    7.5102   20.0420 C   0  0  0  0  0  0  0  0  0  0  0  0
   14.2544    6.2142   19.4191 C   0  0  0  0  0  0  0  0  0  0  0  0
   13.0695    6.3705   20.0375 N   0  0  0  0  0  0  0  0  0  0  0  0
    9.1913    8.0876   21.8361 N   0  0  0  0  0  0  0  0  0  0  0  0
   10.4739    9.4813   20.2889 C   0  0  0  0  0  0  0  0  0  0  0  0
    7.5551    7.1270   23.1200 O   0  0  0  0  0  0  0  0  0  0  0  0
  1 11  4  0
  1 21  4  0
  2  4  1  0
  2  8  1  0
  2 11  1  0
  3 10  4  0
  3 14  4  0
  4  5  1  0
  4 18  2  0
  6 12  1  0
  6 17  4  0
  6 23  4  0
  7  9  1  0
  7 13  4  0
  7 19  4  0
  9 20  1  0
 10 19  4  0
 11 25  4  0
 13 14  4  0
 15 16  4  0
 15 17  4  0
 15 21  4  0
 16 24  1  0
 16 25  4  0
 20 24  1  0
 20 26  2  0
 21 23  4  0
 22 23  1  0
M  END
$$$$

 Created by Python create_sdf_string function

 26 28  0  0  0  0  0  0  0  0999 V2000
   12.4616    8.6700   19.4180 N   0  0  0  0  0  0  0  0  0  0  0  0
   11.8329   10.8148   18.6769 N   0  0  0  0  0  0  0  0  0  0  0  0
    6.1021    2.5564   21.0678 C   0  0  0  0  0  0  0  0  0  0  0  0
   10.9097   11.8051   18.4804 C   0  0  0  0  0  0  0  0  0  0  0  0
   11.2280   12.9135   17.5669 C   0  0  0  0  0  0  0  0  0  0  0  0
   12.3782    5.4231   20.7777 C   0  0  0  0  0  0  0  0  0  0  0  0
    7.7365    4.6508   21.6987 C   0  0  0  0  0  0  0  0  0  0  0  0
   13.0186   11.0102   18.0020 C   0  0  0  0  0  0  0  0  0  0  0  0
    8.6628    5.7088   21.8871 N   0  0  0  0  0  0  0  0  0  0  0  0
    5.6516    3.5258   21.9140 C   0  0  0  0  0  0  0  0  0  0  0  0
   11.5863    9.6815   19.4539 C   0  0  0  0  0  0  0  0  0  0  0  0
   12.9648    4.1543   20.9205 C   0  0  0  0  0  0  0  0  0  0  0  0
    8.2089    3.6265   20.8929 C   0  0  0  0  0  0  0  0  0  0  0  0
    7.3827    2.5724   20.5432 C   0  0  0  0  0  0  0  0  0  0  0  0
   11.1529    7.2750   20.8025 C   0  0  0  0  0  0  0  0  0  0  0  0
   10.2573    8.3215   20.9827 C   0  0  0  0  0  0  0  0  0  0  0  0
   11.1606    5.9378   21.2366 N   0  0  0  0  0  0  0  0  0  0  0  0
    9.8932   11.6736   19.0677 O   0  0  0  0  0  0  0  0  0  0  0  0
    6.4470    4.5850   22.2321 C   0  0  0  0  0  0  0  0  0  0  0  0
    8.4619    6.9895   22.2968 C   0  0  0  0  0  0  0  0  0  0  0  0
   12.2747    7.5102   20.0420 C   0  0  0  0  0  0  0  0  0  0  0  0
   14.2544    6.2142   19.4191 C   0  0  0  0  0  0  0  0  0  0  0  0
   13.0695    6.3705   20.0375 N   0  0  0  0  0  0  0  0  0  0  0  0
    9.1913    8.0876   21.8361 N   0  0  0  0  0  0  0  0  0  0  0  0
   10.4739    9.4813   20.2889 C   0  0  0  0  0  0  0  0  0  0  0  0
    7.5551    7.1270   23.1200 O   0  0  0  0  0  0  0  0  0  0  0  0
  1 11  4  0
  1 21  4  0
  2  4  1  0
  2  8  1  0
  2 11  1  0
  3 10  4  0
  3 14  4  0
  4  5  1  0
  4 18  2  0
  6 12  1  0
  6 17  4  0
  6 23  4  0
  7  9  1  0
  7 13  4  0
  7 19  4  0
  9 20  1  0
 10 19  4  0
 11 25  4  0
 13 14  4  0
 15 16  4  0
 15 17  4  0
 15 21  4  0
 16 24  1  0
 16 25  4  0
 20 24  1  0
 20 26  2  0
 21 23  4  0
 22 23  1  0
M  END
$$$$

 Created by Python create_sdf_string function

 26 28  0  0  0  0  0  0  0  0999 V2000
   12.4616    8.6700   19.4180 N   0  0  0  0  0  0  0  0  0  0  0  0
   11.8329   10.8148   18.6769 N   0  0  0  0  0  0  0  0  0  0  0  0
    6.1021    2.5564   21.0678 C   0  0  0  0  0  0  0  0  0  0  0  0
   10.9097   11.8051   18.4804 C   0  0  0  0  0  0  0  0  0  0  0  0
   11.2280   12.9135   17.5669 C   0  0  0  0  0  0  0  0  0  0  0  0
   12.3782    5.4231   20.7777 C   0  0  0  0  0  0  0  0  0  0  0  0
    7.7365    4.6508   21.6987 C   0  0  0  0  0  0  0  0  0  0  0  0
   13.0186   11.0102   18.0020 C   0  0  0  0  0  0  0  0  0  0  0  0
    8.6628    5.7088   21.8871 N   0  0  0  0  0  0  0  0  0  0  0  0
    5.6516    3.5258   21.9140 C   0  0  0  0  0  0  0  0  0  0  0  0
   11.5863    9.6815   19.4539 C   0  0  0  0  0  0  0  0  0  0  0  0
   12.9648    4.1543   20.9205 C   0  0  0  0  0  0  0  0  0  0  0  0
    8.2089    3.6265   20.8929 C   0  0  0  0  0  0  0  0  0  0  0  0
    7.3827    2.5724   20.5432 C   0  0  0  0  0  0  0  0  0  0  0  0
   11.1529    7.2750   20.8025 C   0  0  0  0  0  0  0  0  0  0  0  0
   10.2573    8.3215   20.9827 C   0  0  0  0  0  0  0  0  0  0  0  0
   11.1606    5.9378   21.2366 N   0  0  0  0  0  0  0  0  0  0  0  0
    9.8932   11.6736   19.0677 O   0  0  0  0  0  0  0  0  0  0  0  0
    6.4470    4.5850   22.2321 C   0  0  0  0  0  0  0  0  0  0  0  0
    8.4619    6.9895   22.2968 C   0  0  0  0  0  0  0  0  0  0  0  0
   12.2747    7.5102   20.0420 C   0  0  0  0  0  0  0  0  0  0  0  0
   14.2544    6.2142   19.4191 C   0  0  0  0  0  0  0  0  0  0  0  0
   13.0695    6.3705   20.0375 N   0  0  0  0  0  0  0  0  0  0  0  0
    9.1913    8.0876   21.8361 N   0  0  0  0  0  0  0  0  0  0  0  0
   10.4739    9.4813   20.2889 C   0  0  0  0  0  0  0  0  0  0  0  0
    7.5551    7.1270   23.1200 O   0  0  0  0  0  0  0  0  0  0  0  0
  1 11  4  0
  1 21  4  0
  2  4  1  0
  2  8  1  0
  2 11  1  0
  3 10  4  0
  3 14  4  0
  4  5  1  0
  4 18  2  0
  6 12  1  0
  6 17  4  0
  6 23  4  0
  7  9  1  0
  7 13  4  0
  7 19  4  0
  9 20  1  0
 10 19  4  0
 11 25  4  0
 13 14  4  0
 15 16  4  0
 15 17  4  0
 15 21  4  0
 16 24  1  0
 16 25  4  0
 20 24  1  0
 20 26  2  0
 21 23  4  0
 22 23  1  0
M  END
$$$$

 Created by Python create_sdf_string function

 26 28  0  0  0  0  0  0  0  0999 V2000
   12.4616    8.6700   19.4180 N   0  0  0  0  0  0  0  0  0  0  0  0
   11.8329   10.8148   18.6769 N   0  0  0  0  0  0  0  0  0  0  0  0
    6.1021    2.5564   21.0678 C   0  0  0  0  0  0  0  0  0  0  0  0
   10.9097   11.8051   18.4804 C   0  0  0  0  0  0  0  0  0  0  0  0
   11.2280   12.9135   17.5669 C   0  0  0  0  0  0  0  0  0  0  0  0
   12.3782    5.4231   20.7777 C   0  0  0  0  0  0  0  0  0  0  0  0
    7.7365    4.6508   21.6987 C   0  0  0  0  0  0  0  0  0  0  0  0
   13.0186   11.0102   18.0020 C   0  0  0  0  0  0  0  0  0  0  0  0
    8.6628    5.7088   21.8871 N   0  0  0  0  0  0  0  0  0  0  0  0
    5.6516    3.5258   21.9140 C   0  0  0  0  0  0  0  0  0  0  0  0
   11.5863    9.6815   19.4539 C   0  0  0  0  0  0  0  0  0  0  0  0
   12.9648    4.1543   20.9205 C   0  0  0  0  0  0  0  0  0  0  0  0
    8.2089    3.6265   20.8929 C   0  0  0  0  0  0  0  0  0  0  0  0
    7.3827    2.5724   20.5432 C   0  0  0  0  0  0  0  0  0  0  0  0
   11.1529    7.2750   20.8025 C   0  0  0  0  0  0  0  0  0  0  0  0
   10.2573    8.3215   20.9827 C   0  0  0  0  0  0  0  0  0  0  0  0
   11.1606    5.9378   21.2366 N   0  0  0  0  0  0  0  0  0  0  0  0
    9.8932   11.6736   19.0677 O   0  0  0  0  0  0  0  0  0  0  0  0
    6.4470    4.5850   22.2321 C   0  0  0  0  0  0  0  0  0  0  0  0
    8.4619    6.9895   22.2968 C   0  0  0  0  0  0  0  0  0  0  0  0
   12.2747    7.5102   20.0420 C   0  0  0  0  0  0  0  0  0  0  0  0
   14.2544    6.2142   19.4191 C   0  0  0  0  0  0  0  0  0  0  0  0
   13.0695    6.3705   20.0375 N   0  0  0  0  0  0  0  0  0  0  0  0
    9.1913    8.0876   21.8361 N   0  0  0  0  0  0  0  0  0  0  0  0
   10.4739    9.4813   20.2889 C   0  0  0  0  0  0  0  0  0  0  0  0
    7.5551    7.1270   23.1200 O   0  0  0  0  0  0  0  0  0  0  0  0
  1 11  4  0
  1 21  4  0
  2  4  1  0
  2  8  1  0
  2 11  1  0
  3 10  4  0
  3 14  4  0
  4  5  1  0
  4 18  2  0
  6 12  1  0
  6 17  4  0
  6 23  4  0
  7  9  1  0
  7 13  4  0
  7 19  4  0
  9 20  1  0
 10 19  4  0
 11 25  4  0
 13 14  4  0
 15 16  4  0
 15 17  4  0
 15 21  4  0
 16 24  1  0
 16 25  4  0
 20 24  1  0
 20 26  2  0
 21 23  4  0
 22 23  1  0
M  END
$$$$

 Created by Python create_sdf_string function

 26 28  0  0  0  0  0  0  0  0999 V2000
   12.4616    8.6700   19.4180 N   0  0  0  0  0  0  0  0  0  0  0  0
   11.8329   10.8148   18.6769 N   0  0  0  0  0  0  0  0  0  0  0  0
    6.1021    2.5564   21.0678 C   0  0  0  0  0  0  0  0  0  0  0  0
   10.9097   11.8051   18.4804 C   0  0  0  0  0  0  0  0  0  0  0  0
   11.2280   12.9135   17.5669 C   0  0  0  0  0  0  0  0  0  0  0  0
   12.3782    5.4231   20.7777 C   0  0  0  0  0  0  0  0  0  0  0  0
    7.7365    4.6508   21.6987 C   0  0  0  0  0  0  0  0  0  0  0  0
   13.0186   11.0102   18.0020 C   0  0  0  0  0  0  0  0  0  0  0  0
    8.6628    5.7088   21.8871 N   0  0  0  0  0  0  0  0  0  0  0  0
    5.6516    3.5258   21.9140 C   0  0  0  0  0  0  0  0  0  0  0  0
   11.5863    9.6815   19.4539 C   0  0  0  0  0  0  0  0  0  0  0  0
   12.9648    4.1543   20.9205 C   0  0  0  0  0  0  0  0  0  0  0  0
    8.2089    3.6265   20.8929 C   0  0  0  0  0  0  0  0  0  0  0  0
    7.3827    2.5724   20.5432 C   0  0  0  0  0  0  0  0  0  0  0  0
   11.1529    7.2750   20.8025 C   0  0  0  0  0  0  0  0  0  0  0  0
   10.2573    8.3215   20.9827 C   0  0  0  0  0  0  0  0  0  0  0  0
   11.1606    5.9378   21.2366 N   0  0  0  0  0  0  0  0  0  0  0  0
    9.8932   11.6736   19.0677 O   0  0  0  0  0  0  0  0  0  0  0  0
    6.4470    4.5850   22.2321 C   0  0  0  0  0  0  0  0  0  0  0  0
    8.4619    6.9895   22.2968 C   0  0  0  0  0  0  0  0  0  0  0  0
   12.2747    7.5102   20.0420 C   0  0  0  0  0  0  0  0  0  0  0  0
   14.2544    6.2142   19.4191 C   0  0  0  0  0  0  0  0  0  0  0  0
   13.0695    6.3705   20.0375 N   0  0  0  0  0  0  0  0  0  0  0  0
    9.1913    8.0876   21.8361 N   0  0  0  0  0  0  0  0  0  0  0  0
   10.4739    9.4813   20.2889 C   0  0  0  0  0  0  0  0  0  0  0  0
    7.5551    7.1270   23.1200 O   0  0  0  0  0  0  0  0  0  0  0  0
  1 11  4  0
  1 21  4  0
  2  4  1  0
  2  8  1  0
  2 11  1  0
  3 10  4  0
  3 14  4  0
  4  5  1  0
  4 18  2  0
  6 12  1  0
  6 17  4  0
  6 23  4  0
  7  9  1  0
  7 13  4  0
  7 19  4  0
  9 20  1  0
 10 19  4  0
 11 25  4  0
 13 14  4  0
 15 16  4  0
 15 17  4  0
 15 21  4  0
 16 24  1  0
 16 25  4  0
 20 24  1  0
 20 26  2  0
 21 23  4  0
 22 23  1  0
M  END
$$$$

 Created by Python create_sdf_string function

 26 28  0  0  0  0  0  0  0  0999 V2000
   12.4616    8.6700   19.4180 N   0  0  0  0  0  0  0  0  0  0  0  0
   11.8329   10.8148   18.6769 N   0  0  0  0  0  0  0  0  0  0  0  0
    6.1021    2.5564   21.0678 C   0  0  0  0  0  0  0  0  0  0  0  0
   10.9097   11.8051   18.4804 C   0  0  0  0  0  0  0  0  0  0  0  0
   11.2280   12.9135   17.5669 C   0  0  0  0  0  0  0  0  0  0  0  0
   12.3782    5.4231   20.7777 C   0  0  0  0  0  0  0  0  0  0  0  0
    7.7365    4.6508   21.6987 C   0  0  0  0  0  0  0  0  0  0  0  0
   13.0186   11.0102   18.0020 C   0  0  0  0  0  0  0  0  0  0  0  0
    8.6628    5.7088   21.8871 N   0  0  0  0  0  0  0  0  0  0  0  0
    5.6516    3.5258   21.9140 C   0  0  0  0  0  0  0  0  0  0  0  0
   11.5863    9.6815   19.4539 C   0  0  0  0  0  0  0  0  0  0  0  0
   12.9648    4.1543   20.9205 C   0  0  0  0  0  0  0  0  0  0  0  0
    8.2089    3.6265   20.8929 C   0  0  0  0  0  0  0  0  0  0  0  0
    7.3827    2.5724   20.5432 C   0  0  0  0  0  0  0  0  0  0  0  0
   11.1529    7.2750   20.8025 C   0  0  0  0  0  0  0  0  0  0  0  0
   10.2573    8.3215   20.9827 C   0  0  0  0  0  0  0  0  0  0  0  0
   11.1606    5.9378   21.2366 N   0  0  0  0  0  0  0  0  0  0  0  0
    9.8932   11.6736   19.0677 O   0  0  0  0  0  0  0  0  0  0  0  0
    6.4470    4.5850   22.2321 C   0  0  0  0  0  0  0  0  0  0  0  0
    8.4619    6.9895   22.2968 C   0  0  0  0  0  0  0  0  0  0  0  0
   12.2747    7.5102   20.0420 C   0  0  0  0  0  0  0  0  0  0  0  0
   14.2544    6.2142   19.4191 C   0  0  0  0  0  0  0  0  0  0  0  0
   13.0695    6.3705   20.0375 N   0  0  0  0  0  0  0  0  0  0  0  0
    9.1913    8.0876   21.8361 N   0  0  0  0  0  0  0  0  0  0  0  0
   10.4739    9.4813   20.2889 C   0  0  0  0  0  0  0  0  0  0  0  0
    7.5551    7.1270   23.1200 O   0  0  0  0  0  0  0  0  0  0  0  0
  1 11  4  0
  1 21  4  0
  2  4  1  0
  2  8  1  0
  2 11  1  0
  3 10  4  0
  3 14  4  0
  4  5  1  0
  4 18  2  0
  6 12  1  0
  6 17  4  0
  6 23  4  0
  7  9  1  0
  7 13  4  0
  7 19  4  0
  9 20  1  0
 10 19  4  0
 11 25  4  0
 13 14  4  0
 15 16  4  0
 15 17  4  0
 15 21  4  0
 16 24  1  0
 16 25  4  0
 20 24  1  0
 20 26  2  0
 21 23  4  0
 22 23  1  0
M  END
$$$$

 Created by Python create_sdf_string function

 26 28  0  0  0  0  0  0  0  0999 V2000
   12.4616    8.6700   19.4180 N   0  0  0  0  0  0  0  0  0  0  0  0
   11.8329   10.8148   18.6769 N   0  0  0  0  0  0  0  0  0  0  0  0
    6.1021    2.5564   21.0678 C   0  0  0  0  0  0  0  0  0  0  0  0
   10.9097   11.8051   18.4804 C   0  0  0  0  0  0  0  0  0  0  0  0
   11.2280   12.9135   17.5669 C   0  0  0  0  0  0  0  0  0  0  0  0
   12.3782    5.4231   20.7777 C   0  0  0  0  0  0  0  0  0  0  0  0
    7.7365    4.6508   21.6987 C   0  0  0  0  0  0  0  0  0  0  0  0
   13.0186   11.0102   18.0020 C   0  0  0  0  0  0  0  0  0  0  0  0
    8.6628    5.7088   21.8871 N   0  0  0  0  0  0  0  0  0  0  0  0
    5.6516    3.5258   21.9140 C   0  0  0  0  0  0  0  0  0  0  0  0
   11.5863    9.6815   19.4539 C   0  0  0  0  0  0  0  0  0  0  0  0
   12.9648    4.1543   20.9205 C   0  0  0  0  0  0  0  0  0  0  0  0
    8.2089    3.6265   20.8929 C   0  0  0  0  0  0  0  0  0  0  0  0
    7.3827    2.5724   20.5432 C   0  0  0  0  0  0  0  0  0  0  0  0
   11.1529    7.2750   20.8025 C   0  0  0  0  0  0  0  0  0  0  0  0
   10.2573    8.3215   20.9827 C   0  0  0  0  0  0  0  0  0  0  0  0
   11.1606    5.9378   21.2366 N   0  0  0  0  0  0  0  0  0  0  0  0
    9.8932   11.6736   19.0677 O   0  0  0  0  0  0  0  0  0  0  0  0
    6.4470    4.5850   22.2321 C   0  0  0  0  0  0  0  0  0  0  0  0
    8.4619    6.9895   22.2968 C   0  0  0  0  0  0  0  0  0  0  0  0
   12.2747    7.5102   20.0420 C   0  0  0  0  0  0  0  0  0  0  0  0
   14.2544    6.2142   19.4191 C   0  0  0  0  0  0  0  0  0  0  0  0
   13.0695    6.3705   20.0375 N   0  0  0  0  0  0  0  0  0  0  0  0
    9.1913    8.0876   21.8361 N   0  0  0  0  0  0  0  0  0  0  0  0
   10.4739    9.4813   20.2889 C   0  0  0  0  0  0  0  0  0  0  0  0
    7.5551    7.1270   23.1200 O   0  0  0  0  0  0  0  0  0  0  0  0
  1 11  4  0
  1 21  4  0
  2  4  1  0
  2  8  1  0
  2 11  1  0
  3 10  4  0
  3 14  4  0
  4  5  1  0
  4 18  2  0
  6 12  1  0
  6 17  4  0
  6 23  4  0
  7  9  1  0
  7 13  4  0
  7 19  4  0
  9 20  1  0
 10 19  4  0
 11 25  4  0
 13 14  4  0
 15 16  4  0
 15 17  4  0
 15 21  4  0
 16 24  1  0
 16 25  4  0
 20 24  1  0
 20 26  2  0
 21 23  4  0
 22 23  1  0
M  END
$$$$

 Created by Python create_sdf_string function

 26 28  0  0  0  0  0  0  0  0999 V2000
   12.4616    8.6700   19.4180 N   0  0  0  0  0  0  0  0  0  0  0  0
   11.8329   10.8148   18.6769 N   0  0  0  0  0  0  0  0  0  0  0  0
    6.1021    2.5564   21.0678 C   0  0  0  0  0  0  0  0  0  0  0  0
   10.9097   11.8051   18.4804 C   0  0  0  0  0  0  0  0  0  0  0  0
   11.2280   12.9135   17.5669 C   0  0  0  0  0  0  0  0  0  0  0  0
   12.3782    5.4231   20.7777 C   0  0  0  0  0  0  0  0  0  0  0  0
    7.7365    4.6508   21.6987 C   0  0  0  0  0  0  0  0  0  0  0  0
   13.0186   11.0102   18.0020 C   0  0  0  0  0  0  0  0  0  0  0  0
    8.6628    5.7088   21.8871 N   0  0  0  0  0  0  0  0  0  0  0  0
    5.6516    3.5258   21.9140 C   0  0  0  0  0  0  0  0  0  0  0  0
   11.5863    9.6815   19.4539 C   0  0  0  0  0  0  0  0  0  0  0  0
   12.9648    4.1543   20.9205 C   0  0  0  0  0  0  0  0  0  0  0  0
    8.2089    3.6265   20.8929 C   0  0  0  0  0  0  0  0  0  0  0  0
    7.3827    2.5724   20.5432 C   0  0  0  0  0  0  0  0  0  0  0  0
   11.1529    7.2750   20.8025 C   0  0  0  0  0  0  0  0  0  0  0  0
   10.2573    8.3215   20.9827 C   0  0  0  0  0  0  0  0  0  0  0  0
   11.1606    5.9378   21.2366 N   0  0  0  0  0  0  0  0  0  0  0  0
    9.8932   11.6736   19.0677 O   0  0  0  0  0  0  0  0  0  0  0  0
    6.4470    4.5850   22.2321 C   0  0  0  0  0  0  0  0  0  0  0  0
    8.4619    6.9895   22.2968 C   0  0  0  0  0  0  0  0  0  0  0  0
   12.2747    7.5102   20.0420 C   0  0  0  0  0  0  0  0  0  0  0  0
   14.2544    6.2142   19.4191 C   0  0  0  0  0  0  0  0  0  0  0  0
   13.0695    6.3705   20.0375 N   0  0  0  0  0  0  0  0  0  0  0  0
    9.1913    8.0876   21.8361 N   0  0  0  0  0  0  0  0  0  0  0  0
   10.4739    9.4813   20.2889 C   0  0  0  0  0  0  0  0  0  0  0  0
    7.5551    7.1270   23.1200 O   0  0  0  0  0  0  0  0  0  0  0  0
  1 11  4  0
  1 21  4  0
  2  4  1  0
  2  8  1  0
  2 11  1  0
  3 10  4  0
  3 14  4  0
  4  5  1  0
  4 18  2  0
  6 12  1  0
  6 17  4  0
  6 23  4  0
  7  9  1  0
  7 13  4  0
  7 19  4  0
  9 20  1  0
 10 19  4  0
 11 25  4  0
 13 14  4  0
 15 16  4  0
 15 17  4  0
 15 21  4  0
 16 24  1  0
 16 25  4  0
 20 24  1  0
 20 26  2  0
 21 23  4  0
 22 23  1  0
M  END
$$$$

 Created by Python create_sdf_string function

 26 28  0  0  0  0  0  0  0  0999 V2000
   12.4616    8.6700   19.4180 N   0  0  0  0  0  0  0  0  0  0  0  0
   11.8329   10.8148   18.6769 N   0  0  0  0  0  0  0  0  0  0  0  0
    6.1021    2.5564   21.0678 C   0  0  0  0  0  0  0  0  0  0  0  0
   10.9097   11.8051   18.4804 C   0  0  0  0  0  0  0  0  0  0  0  0
   11.2280   12.9135   17.5669 C   0  0  0  0  0  0  0  0  0  0  0  0
   12.3782    5.4231   20.7777 C   0  0  0  0  0  0  0  0  0  0  0  0
    7.7365    4.6508   21.6987 C   0  0  0  0  0  0  0  0  0  0  0  0
   13.0186   11.0102   18.0020 C   0  0  0  0  0  0  0  0  0  0  0  0
    8.6628    5.7088   21.8871 N   0  0  0  0  0  0  0  0  0  0  0  0
    5.6516    3.5258   21.9140 C   0  0  0  0  0  0  0  0  0  0  0  0
   11.5863    9.6815   19.4539 C   0  0  0  0  0  0  0  0  0  0  0  0
   12.9648    4.1543   20.9205 C   0  0  0  0  0  0  0  0  0  0  0  0
    8.2089    3.6265   20.8929 C   0  0  0  0  0  0  0  0  0  0  0  0
    7.3827    2.5724   20.5432 C   0  0  0  0  0  0  0  0  0  0  0  0
   11.1529    7.2750   20.8025 C   0  0  0  0  0  0  0  0  0  0  0  0
   10.2573    8.3215   20.9827 C   0  0  0  0  0  0  0  0  0  0  0  0
   11.1606    5.9378   21.2366 N   0  0  0  0  0  0  0  0  0  0  0  0
    9.8932   11.6736   19.0677 O   0  0  0  0  0  0  0  0  0  0  0  0
    6.4470    4.5850   22.2321 C   0  0  0  0  0  0  0  0  0  0  0  0
    8.4619    6.9895   22.2968 C   0  0  0  0  0  0  0  0  0  0  0  0
   12.2747    7.5102   20.0420 C   0  0  0  0  0  0  0  0  0  0  0  0
   14.2544    6.2142   19.4191 C   0  0  0  0  0  0  0  0  0  0  0  0
   13.0695    6.3705   20.0375 N   0  0  0  0  0  0  0  0  0  0  0  0
    9.1913    8.0876   21.8361 N   0  0  0  0  0  0  0  0  0  0  0  0
   10.4739    9.4813   20.2889 C   0  0  0  0  0  0  0  0  0  0  0  0
    7.5551    7.1270   23.1200 O   0  0  0  0  0  0  0  0  0  0  0  0
  1 11  4  0
  1 21  4  0
  2  4  1  0
  2  8  1  0
  2 11  1  0
  3 10  4  0
  3 14  4  0
  4  5  1  0
  4 18  2  0
  6 12  1  0
  6 17  4  0
  6 23  4  0
  7  9  1  0
  7 13  4  0
  7 19  4  0
  9 20  1  0
 10 19  4  0
 11 25  4  0
 13 14  4  0
 15 16  4  0
 15 17  4  0
 15 21  4  0
 16 24  1  0
 16 25  4  0
 20 24  1  0
 20 26  2  0
 21 23  4  0
 22 23  1  0
M  END
$$$$

 Created by Python create_sdf_string function

 26 28  0  0  0  0  0  0  0  0999 V2000
   12.4616    8.6700   19.4180 N   0  0  0  0  0  0  0  0  0  0  0  0
   11.8329   10.8148   18.6769 N   0  0  0  0  0  0  0  0  0  0  0  0
    6.1021    2.5564   21.0678 C   0  0  0  0  0  0  0  0  0  0  0  0
   10.9097   11.8051   18.4804 C   0  0  0  0  0  0  0  0  0  0  0  0
   11.2280   12.9135   17.5669 C   0  0  0  0  0  0  0  0  0  0  0  0
   12.3782    5.4231   20.7777 C   0  0  0  0  0  0  0  0  0  0  0  0
    7.7365    4.6508   21.6987 C   0  0  0  0  0  0  0  0  0  0  0  0
   13.0186   11.0102   18.0020 C   0  0  0  0  0  0  0  0  0  0  0  0
    8.6628    5.7088   21.8871 N   0  0  0  0  0  0  0  0  0  0  0  0
    5.6516    3.5258   21.9140 C   0  0  0  0  0  0  0  0  0  0  0  0
   11.5863    9.6815   19.4539 C   0  0  0  0  0  0  0  0  0  0  0  0
   12.9648    4.1543   20.9205 C   0  0  0  0  0  0  0  0  0  0  0  0
    8.2089    3.6265   20.8929 C   0  0  0  0  0  0  0  0  0  0  0  0
    7.3827    2.5724   20.5432 C   0  0  0  0  0  0  0  0  0  0  0  0
   11.1529    7.2750   20.8025 C   0  0  0  0  0  0  0  0  0  0  0  0
   10.2573    8.3215   20.9827 C   0  0  0  0  0  0  0  0  0  0  0  0
   11.1606    5.9378   21.2366 N   0  0  0  0  0  0  0  0  0  0  0  0
    9.8932   11.6736   19.0677 O   0  0  0  0  0  0  0  0  0  0  0  0
    6.4470    4.5850   22.2321 C   0  0  0  0  0  0  0  0  0  0  0  0
    8.4619    6.9895   22.2968 C   0  0  0  0  0  0  0  0  0  0  0  0
   12.2747    7.5102   20.0420 C   0  0  0  0  0  0  0  0  0  0  0  0
   14.2544    6.2142   19.4191 C   0  0  0  0  0  0  0  0  0  0  0  0
   13.0695    6.3705   20.0375 N   0  0  0  0  0  0  0  0  0  0  0  0
    9.1913    8.0876   21.8361 N   0  0  0  0  0  0  0  0  0  0  0  0
   10.4739    9.4813   20.2889 C   0  0  0  0  0  0  0  0  0  0  0  0
    7.5551    7.1270   23.1200 O   0  0  0  0  0  0  0  0  0  0  0  0
  1 11  4  0
  1 21  4  0
  2  4  1  0
  2  8  1  0
  2 11  1  0
  3 10  4  0
  3 14  4  0
  4  5  1  0
  4 18  2  0
  6 12  1  0
  6 17  4  0
  6 23  4  0
  7  9  1  0
  7 13  4  0
  7 19  4  0
  9 20  1  0
 10 19  4  0
 11 25  4  0
 13 14  4  0
 15 16  4  0
 15 17  4  0
 15 21  4  0
 16 24  1  0
 16 25  4  0
 20 24  1  0
 20 26  2  0
 21 23  4  0
 22 23  1  0
M  END
$$$$

 Created by Python create_sdf_string function

 26 28  0  0  0  0  0  0  0  0999 V2000
   12.4616    8.6700   19.4180 N   0  0  0  0  0  0  0  0  0  0  0  0
   11.8329   10.8148   18.6769 N   0  0  0  0  0  0  0  0  0  0  0  0
    6.1021    2.5564   21.0678 C   0  0  0  0  0  0  0  0  0  0  0  0
   10.9097   11.8051   18.4804 C   0  0  0  0  0  0  0  0  0  0  0  0
   11.2280   12.9135   17.5669 C   0  0  0  0  0  0  0  0  0  0  0  0
   12.3782    5.4231   20.7777 C   0  0  0  0  0  0  0  0  0  0  0  0
    7.7365    4.6508   21.6987 C   0  0  0  0  0  0  0  0  0  0  0  0
   13.0186   11.0102   18.0020 C   0  0  0  0  0  0  0  0  0  0  0  0
    8.6628    5.7088   21.8871 N   0  0  0  0  0  0  0  0  0  0  0  0
    5.6516    3.5258   21.9140 C   0  0  0  0  0  0  0  0  0  0  0  0
   11.5863    9.6815   19.4539 C   0  0  0  0  0  0  0  0  0  0  0  0
   12.9648    4.1543   20.9205 C   0  0  0  0  0  0  0  0  0  0  0  0
    8.2089    3.6265   20.8929 C   0  0  0  0  0  0  0  0  0  0  0  0
    7.3827    2.5724   20.5432 C   0  0  0  0  0  0  0  0  0  0  0  0
   11.1529    7.2750   20.8025 C   0  0  0  0  0  0  0  0  0  0  0  0
   10.2573    8.3215   20.9827 C   0  0  0  0  0  0  0  0  0  0  0  0
   11.1606    5.9378   21.2366 N   0  0  0  0  0  0  0  0  0  0  0  0
    9.8932   11.6736   19.0677 O   0  0  0  0  0  0  0  0  0  0  0  0
    6.4470    4.5850   22.2321 C   0  0  0  0  0  0  0  0  0  0  0  0
    8.4619    6.9895   22.2968 C   0  0  0  0  0  0  0  0  0  0  0  0
   12.2747    7.5102   20.0420 C   0  0  0  0  0  0  0  0  0  0  0  0
   14.2544    6.2142   19.4191 C   0  0  0  0  0  0  0  0  0  0  0  0
   13.0695    6.3705   20.0375 N   0  0  0  0  0  0  0  0  0  0  0  0
    9.1913    8.0876   21.8361 N   0  0  0  0  0  0  0  0  0  0  0  0
   10.4739    9.4813   20.2889 C   0  0  0  0  0  0  0  0  0  0  0  0
    7.5551    7.1270   23.1200 O   0  0  0  0  0  0  0  0  0  0  0  0
  1 11  4  0
  1 21  4  0
  2  4  1  0
  2  8  1  0
  2 11  1  0
  3 10  4  0
  3 14  4  0
  4  5  1  0
  4 18  2  0
  6 12  1  0
  6 17  4  0
  6 23  4  0
  7  9  1  0
  7 13  4  0
  7 19  4  0
  9 20  1  0
 10 19  4  0
 11 25  4  0
 13 14  4  0
 15 16  4  0
 15 17  4  0
 15 21  4  0
 16 24  1  0
 16 25  4  0
 20 24  1  0
 20 26  2  0
 21 23  4  0
 22 23  1  0
M  END
$$$$

 Created by Python create_sdf_string function

 26 28  0  0  0  0  0  0  0  0999 V2000
   12.4616    8.6700   19.4180 N   0  0  0  0  0  0  0  0  0  0  0  0
   11.8329   10.8148   18.6769 N   0  0  0  0  0  0  0  0  0  0  0  0
    6.1021    2.5564   21.0678 C   0  0  0  0  0  0  0  0  0  0  0  0
   10.9097   11.8051   18.4804 C   0  0  0  0  0  0  0  0  0  0  0  0
   11.2280   12.9135   17.5669 C   0  0  0  0  0  0  0  0  0  0  0  0
   12.3782    5.4231   20.7777 C   0  0  0  0  0  0  0  0  0  0  0  0
    7.7365    4.6508   21.6987 C   0  0  0  0  0  0  0  0  0  0  0  0
   13.0186   11.0102   18.0020 C   0  0  0  0  0  0  0  0  0  0  0  0
    8.6628    5.7088   21.8871 N   0  0  0  0  0  0  0  0  0  0  0  0
    5.6516    3.5258   21.9140 C   0  0  0  0  0  0  0  0  0  0  0  0
   11.5863    9.6815   19.4539 C   0  0  0  0  0  0  0  0  0  0  0  0
   12.9648    4.1543   20.9205 C   0  0  0  0  0  0  0  0  0  0  0  0
    8.2089    3.6265   20.8929 C   0  0  0  0  0  0  0  0  0  0  0  0
    7.3827    2.5724   20.5432 C   0  0  0  0  0  0  0  0  0  0  0  0
   11.1529    7.2750   20.8025 C   0  0  0  0  0  0  0  0  0  0  0  0
   10.2573    8.3215   20.9827 C   0  0  0  0  0  0  0  0  0  0  0  0
   11.1606    5.9378   21.2366 N   0  0  0  0  0  0  0  0  0  0  0  0
    9.8932   11.6736   19.0677 O   0  0  0  0  0  0  0  0  0  0  0  0
    6.4470    4.5850   22.2321 C   0  0  0  0  0  0  0  0  0  0  0  0
    8.4619    6.9895   22.2968 C   0  0  0  0  0  0  0  0  0  0  0  0
   12.2747    7.5102   20.0420 C   0  0  0  0  0  0  0  0  0  0  0  0
   14.2544    6.2142   19.4191 C   0  0  0  0  0  0  0  0  0  0  0  0
   13.0695    6.3705   20.0375 N   0  0  0  0  0  0  0  0  0  0  0  0
    9.1913    8.0876   21.8361 N   0  0  0  0  0  0  0  0  0  0  0  0
   10.4739    9.4813   20.2889 C   0  0  0  0  0  0  0  0  0  0  0  0
    7.5551    7.1270   23.1200 O   0  0  0  0  0  0  0  0  0  0  0  0
  1 11  4  0
  1 21  4  0
  2  4  1  0
  2  8  1  0
  2 11  1  0
  3 10  4  0
  3 14  4  0
  4  5  1  0
  4 18  2  0
  6 12  1  0
  6 17  4  0
  6 23  4  0
  7  9  1  0
  7 13  4  0
  7 19  4  0
  9 20  1  0
 10 19  4  0
 11 25  4  0
 13 14  4  0
 15 16  4  0
 15 17  4  0
 15 21  4  0
 16 24  1  0
 16 25  4  0
 20 24  1  0
 20 26  2  0
 21 23  4  0
 22 23  1  0
M  END
$$$$

 Created by Python create_sdf_string function

 26 28  0  0  0  0  0  0  0  0999 V2000
   12.4616    8.6700   19.4180 N   0  0  0  0  0  0  0  0  0  0  0  0
   11.8329   10.8148   18.6769 N   0  0  0  0  0  0  0  0  0  0  0  0
    6.1021    2.5564   21.0678 C   0  0  0  0  0  0  0  0  0  0  0  0
   10.9097   11.8051   18.4804 C   0  0  0  0  0  0  0  0  0  0  0  0
   11.2280   12.9135   17.5669 C   0  0  0  0  0  0  0  0  0  0  0  0
   12.3782    5.4231   20.7777 C   0  0  0  0  0  0  0  0  0  0  0  0
    7.7365    4.6508   21.6987 C   0  0  0  0  0  0  0  0  0  0  0  0
   13.0186   11.0102   18.0020 C   0  0  0  0  0  0  0  0  0  0  0  0
    8.6628    5.7088   21.8871 N   0  0  0  0  0  0  0  0  0  0  0  0
    5.6516    3.5258   21.9140 C   0  0  0  0  0  0  0  0  0  0  0  0
   11.5863    9.6815   19.4539 C   0  0  0  0  0  0  0  0  0  0  0  0
   12.9648    4.1543   20.9205 C   0  0  0  0  0  0  0  0  0  0  0  0
    8.2089    3.6265   20.8929 C   0  0  0  0  0  0  0  0  0  0  0  0
    7.3827    2.5724   20.5432 C   0  0  0  0  0  0  0  0  0  0  0  0
   11.1529    7.2750   20.8025 C   0  0  0  0  0  0  0  0  0  0  0  0
   10.2573    8.3215   20.9827 C   0  0  0  0  0  0  0  0  0  0  0  0
   11.1606    5.9378   21.2366 N   0  0  0  0  0  0  0  0  0  0  0  0
    9.8932   11.6736   19.0677 O   0  0  0  0  0  0  0  0  0  0  0  0
    6.4470    4.5850   22.2321 C   0  0  0  0  0  0  0  0  0  0  0  0
    8.4619    6.9895   22.2968 C   0  0  0  0  0  0  0  0  0  0  0  0
   12.2747    7.5102   20.0420 C   0  0  0  0  0  0  0  0  0  0  0  0
   14.2544    6.2142   19.4191 C   0  0  0  0  0  0  0  0  0  0  0  0
   13.0695    6.3705   20.0375 N   0  0  0  0  0  0  0  0  0  0  0  0
    9.1913    8.0876   21.8361 N   0  0  0  0  0  0  0  0  0  0  0  0
   10.4739    9.4813   20.2889 C   0  0  0  0  0  0  0  0  0  0  0  0
    7.5551    7.1270   23.1200 O   0  0  0  0  0  0  0  0  0  0  0  0
  1 11  4  0
  1 21  4  0
  2  4  1  0
  2  8  1  0
  2 11  1  0
  3 10  4  0
  3 14  4  0
  4  5  1  0
  4 18  2  0
  6 12  1  0
  6 17  4  0
  6 23  4  0
  7  9  1  0
  7 13  4  0
  7 19  4  0
  9 20  1  0
 10 19  4  0
 11 25  4  0
 13 14  4  0
 15 16  4  0
 15 17  4  0
 15 21  4  0
 16 24  1  0
 16 25  4  0
 20 24  1  0
 20 26  2  0
 21 23  4  0
 22 23  1  0
M  END
$$$$

 Created by Python create_sdf_string function

 26 28  0  0  0  0  0  0  0  0999 V2000
   12.4616    8.6700   19.4180 N   0  0  0  0  0  0  0  0  0  0  0  0
   11.8329   10.8148   18.6769 N   0  0  0  0  0  0  0  0  0  0  0  0
    6.1021    2.5564   21.0678 C   0  0  0  0  0  0  0  0  0  0  0  0
   10.9097   11.8051   18.4804 C   0  0  0  0  0  0  0  0  0  0  0  0
   11.2280   12.9135   17.5669 C   0  0  0  0  0  0  0  0  0  0  0  0
   12.3782    5.4231   20.7777 C   0  0  0  0  0  0  0  0  0  0  0  0
    7.7365    4.6508   21.6987 C   0  0  0  0  0  0  0  0  0  0  0  0
   13.0186   11.0102   18.0020 C   0  0  0  0  0  0  0  0  0  0  0  0
    8.6628    5.7088   21.8871 N   0  0  0  0  0  0  0  0  0  0  0  0
    5.6516    3.5258   21.9140 C   0  0  0  0  0  0  0  0  0  0  0  0
   11.5863    9.6815   19.4539 C   0  0  0  0  0  0  0  0  0  0  0  0
   12.9648    4.1543   20.9205 C   0  0  0  0  0  0  0  0  0  0  0  0
    8.2089    3.6265   20.8929 C   0  0  0  0  0  0  0  0  0  0  0  0
    7.3827    2.5724   20.5432 C   0  0  0  0  0  0  0  0  0  0  0  0
   11.1529    7.2750   20.8025 C   0  0  0  0  0  0  0  0  0  0  0  0
   10.2573    8.3215   20.9827 C   0  0  0  0  0  0  0  0  0  0  0  0
   11.1606    5.9378   21.2366 N   0  0  0  0  0  0  0  0  0  0  0  0
    9.8932   11.6736   19.0677 O   0  0  0  0  0  0  0  0  0  0  0  0
    6.4470    4.5850   22.2321 C   0  0  0  0  0  0  0  0  0  0  0  0
    8.4619    6.9895   22.2968 C   0  0  0  0  0  0  0  0  0  0  0  0
   12.2747    7.5102   20.0420 C   0  0  0  0  0  0  0  0  0  0  0  0
   14.2544    6.2142   19.4191 C   0  0  0  0  0  0  0  0  0  0  0  0
   13.0695    6.3705   20.0375 N   0  0  0  0  0  0  0  0  0  0  0  0
    9.1913    8.0876   21.8361 N   0  0  0  0  0  0  0  0  0  0  0  0
   10.4739    9.4813   20.2889 C   0  0  0  0  0  0  0  0  0  0  0  0
    7.5551    7.1270   23.1200 O   0  0  0  0  0  0  0  0  0  0  0  0
  1 11  4  0
  1 21  4  0
  2  4  1  0
  2  8  1  0
  2 11  1  0
  3 10  4  0
  3 14  4  0
  4  5  1  0
  4 18  2  0
  6 12  1  0
  6 17  4  0
  6 23  4  0
  7  9  1  0
  7 13  4  0
  7 19  4  0
  9 20  1  0
 10 19  4  0
 11 25  4  0
 13 14  4  0
 15 16  4  0
 15 17  4  0
 15 21  4  0
 16 24  1  0
 16 25  4  0
 20 24  1  0
 20 26  2  0
 21 23  4  0
 22 23  1  0
M  END
$$$$

 Created by Python create_sdf_string function

 26 28  0  0  0  0  0  0  0  0999 V2000
   12.4616    8.6700   19.4180 N   0  0  0  0  0  0  0  0  0  0  0  0
   11.8329   10.8148   18.6769 N   0  0  0  0  0  0  0  0  0  0  0  0
    6.1021    2.5564   21.0678 C   0  0  0  0  0  0  0  0  0  0  0  0
   10.9097   11.8051   18.4804 C   0  0  0  0  0  0  0  0  0  0  0  0
   11.2280   12.9135   17.5669 C   0  0  0  0  0  0  0  0  0  0  0  0
   12.3782    5.4231   20.7777 C   0  0  0  0  0  0  0  0  0  0  0  0
    7.7365    4.6508   21.6987 C   0  0  0  0  0  0  0  0  0  0  0  0
   13.0186   11.0102   18.0020 C   0  0  0  0  0  0  0  0  0  0  0  0
    8.6628    5.7088   21.8871 N   0  0  0  0  0  0  0  0  0  0  0  0
    5.6516    3.5258   21.9140 C   0  0  0  0  0  0  0  0  0  0  0  0
   11.5863    9.6815   19.4539 C   0  0  0  0  0  0  0  0  0  0  0  0
   12.9648    4.1543   20.9205 C   0  0  0  0  0  0  0  0  0  0  0  0
    8.2089    3.6265   20.8929 C   0  0  0  0  0  0  0  0  0  0  0  0
    7.3827    2.5724   20.5432 C   0  0  0  0  0  0  0  0  0  0  0  0
   11.1529    7.2750   20.8025 C   0  0  0  0  0  0  0  0  0  0  0  0
   10.2573    8.3215   20.9827 C   0  0  0  0  0  0  0  0  0  0  0  0
   11.1606    5.9378   21.2366 N   0  0  0  0  0  0  0  0  0  0  0  0
    9.8932   11.6736   19.0677 O   0  0  0  0  0  0  0  0  0  0  0  0
    6.4470    4.5850   22.2321 C   0  0  0  0  0  0  0  0  0  0  0  0
    8.4619    6.9895   22.2968 C   0  0  0  0  0  0  0  0  0  0  0  0
   12.2747    7.5102   20.0420 C   0  0  0  0  0  0  0  0  0  0  0  0
   14.2544    6.2142   19.4191 C   0  0  0  0  0  0  0  0  0  0  0  0
   13.0695    6.3705   20.0375 N   0  0  0  0  0  0  0  0  0  0  0  0
    9.1913    8.0876   21.8361 N   0  0  0  0  0  0  0  0  0  0  0  0
   10.4739    9.4813   20.2889 C   0  0  0  0  0  0  0  0  0  0  0  0
    7.5551    7.1270   23.1200 O   0  0  0  0  0  0  0  0  0  0  0  0
  1 11  4  0
  1 21  4  0
  2  4  1  0
  2  8  1  0
  2 11  1  0
  3 10  4  0
  3 14  4  0
  4  5  1  0
  4 18  2  0
  6 12  1  0
  6 17  4  0
  6 23  4  0
  7  9  1  0
  7 13  4  0
  7 19  4  0
  9 20  1  0
 10 19  4  0
 11 25  4  0
 13 14  4  0
 15 16  4  0
 15 17  4  0
 15 21  4  0
 16 24  1  0
 16 25  4  0
 20 24  1  0
 20 26  2  0
 21 23  4  0
 22 23  1  0
M  END
$$$$

 Created by Python create_sdf_string function

 26 28  0  0  0  0  0  0  0  0999 V2000
   12.4616    8.6700   19.4180 N   0  0  0  0  0  0  0  0  0  0  0  0
   11.8329   10.8148   18.6769 N   0  0  0  0  0  0  0  0  0  0  0  0
    6.1021    2.5564   21.0678 C   0  0  0  0  0  0  0  0  0  0  0  0
   10.9097   11.8051   18.4804 C   0  0  0  0  0  0  0  0  0  0  0  0
   11.2280   12.9135   17.5669 C   0  0  0  0  0  0  0  0  0  0  0  0
   12.3782    5.4231   20.7777 C   0  0  0  0  0  0  0  0  0  0  0  0
    7.7365    4.6508   21.6987 C   0  0  0  0  0  0  0  0  0  0  0  0
   13.0186   11.0102   18.0020 C   0  0  0  0  0  0  0  0  0  0  0  0
    8.6628    5.7088   21.8871 N   0  0  0  0  0  0  0  0  0  0  0  0
    5.6516    3.5258   21.9140 C   0  0  0  0  0  0  0  0  0  0  0  0
   11.5863    9.6815   19.4539 C   0  0  0  0  0  0  0  0  0  0  0  0
   12.9648    4.1543   20.9205 C   0  0  0  0  0  0  0  0  0  0  0  0
    8.2089    3.6265   20.8929 C   0  0  0  0  0  0  0  0  0  0  0  0
    7.3827    2.5724   20.5432 C   0  0  0  0  0  0  0  0  0  0  0  0
   11.1529    7.2750   20.8025 C   0  0  0  0  0  0  0  0  0  0  0  0
   10.2573    8.3215   20.9827 C   0  0  0  0  0  0  0  0  0  0  0  0
   11.1606    5.9378   21.2366 N   0  0  0  0  0  0  0  0  0  0  0  0
    9.8932   11.6736   19.0677 O   0  0  0  0  0  0  0  0  0  0  0  0
    6.4470    4.5850   22.2321 C   0  0  0  0  0  0  0  0  0  0  0  0
    8.4619    6.9895   22.2968 C   0  0  0  0  0  0  0  0  0  0  0  0
   12.2747    7.5102   20.0420 C   0  0  0  0  0  0  0  0  0  0  0  0
   14.2544    6.2142   19.4191 C   0  0  0  0  0  0  0  0  0  0  0  0
   13.0695    6.3705   20.0375 N   0  0  0  0  0  0  0  0  0  0  0  0
    9.1913    8.0876   21.8361 N   0  0  0  0  0  0  0  0  0  0  0  0
   10.4739    9.4813   20.2889 C   0  0  0  0  0  0  0  0  0  0  0  0
    7.5551    7.1270   23.1200 O   0  0  0  0  0  0  0  0  0  0  0  0
  1 11  4  0
  1 21  4  0
  2  4  1  0
  2  8  1  0
  2 11  1  0
  3 10  4  0
  3 14  4  0
  4  5  1  0
  4 18  2  0
  6 12  1  0
  6 17  4  0
  6 23  4  0
  7  9  1  0
  7 13  4  0
  7 19  4  0
  9 20  1  0
 10 19  4  0
 11 25  4  0
 13 14  4  0
 15 16  4  0
 15 17  4  0
 15 21  4  0
 16 24  1  0
 16 25  4  0
 20 24  1  0
 20 26  2  0
 21 23  4  0
 22 23  1  0
M  END
$$$$

 Created by Python create_sdf_string function

 26 28  0  0  0  0  0  0  0  0999 V2000
   12.4616    8.6700   19.4180 N   0  0  0  0  0  0  0  0  0  0  0  0
   11.8329   10.8148   18.6769 N   0  0  0  0  0  0  0  0  0  0  0  0
    6.1021    2.5564   21.0678 C   0  0  0  0  0  0  0  0  0  0  0  0
   10.9097   11.8051   18.4804 C   0  0  0  0  0  0  0  0  0  0  0  0
   11.2280   12.9135   17.5669 C   0  0  0  0  0  0  0  0  0  0  0  0
   12.3782    5.4231   20.7777 C   0  0  0  0  0  0  0  0  0  0  0  0
    7.7365    4.6508   21.6987 C   0  0  0  0  0  0  0  0  0  0  0  0
   13.0186   11.0102   18.0020 C   0  0  0  0  0  0  0  0  0  0  0  0
    8.6628    5.7088   21.8871 N   0  0  0  0  0  0  0  0  0  0  0  0
    5.6516    3.5258   21.9140 C   0  0  0  0  0  0  0  0  0  0  0  0
   11.5863    9.6815   19.4539 C   0  0  0  0  0  0  0  0  0  0  0  0
   12.9648    4.1543   20.9205 C   0  0  0  0  0  0  0  0  0  0  0  0
    8.2089    3.6265   20.8929 C   0  0  0  0  0  0  0  0  0  0  0  0
    7.3827    2.5724   20.5432 C   0  0  0  0  0  0  0  0  0  0  0  0
   11.1529    7.2750   20.8025 C   0  0  0  0  0  0  0  0  0  0  0  0
   10.2573    8.3215   20.9827 C   0  0  0  0  0  0  0  0  0  0  0  0
   11.1606    5.9378   21.2366 N   0  0  0  0  0  0  0  0  0  0  0  0
    9.8932   11.6736   19.0677 O   0  0  0  0  0  0  0  0  0  0  0  0
    6.4470    4.5850   22.2321 C   0  0  0  0  0  0  0  0  0  0  0  0
    8.4619    6.9895   22.2968 C   0  0  0  0  0  0  0  0  0  0  0  0
   12.2747    7.5102   20.0420 C   0  0  0  0  0  0  0  0  0  0  0  0
   14.2544    6.2142   19.4191 C   0  0  0  0  0  0  0  0  0  0  0  0
   13.0695    6.3705   20.0375 N   0  0  0  0  0  0  0  0  0  0  0  0
    9.1913    8.0876   21.8361 N   0  0  0  0  0  0  0  0  0  0  0  0
   10.4739    9.4813   20.2889 C   0  0  0  0  0  0  0  0  0  0  0  0
    7.5551    7.1270   23.1200 O   0  0  0  0  0  0  0  0  0  0  0  0
  1 11  4  0
  1 21  4  0
  2  4  1  0
  2  8  1  0
  2 11  1  0
  3 10  4  0
  3 14  4  0
  4  5  1  0
  4 18  2  0
  6 12  1  0
  6 17  4  0
  6 23  4  0
  7  9  1  0
  7 13  4  0
  7 19  4  0
  9 20  1  0
 10 19  4  0
 11 25  4  0
 13 14  4  0
 15 16  4  0
 15 17  4  0
 15 21  4  0
 16 24  1  0
 16 25  4  0
 20 24  1  0
 20 26  2  0
 21 23  4  0
 22 23  1  0
M  END
$$$$

 Created by Python create_sdf_string function

 26 28  0  0  0  0  0  0  0  0999 V2000
   12.4616    8.6700   19.4180 N   0  0  0  0  0  0  0  0  0  0  0  0
   11.8329   10.8148   18.6769 N   0  0  0  0  0  0  0  0  0  0  0  0
    6.1021    2.5564   21.0678 C   0  0  0  0  0  0  0  0  0  0  0  0
   10.9097   11.8051   18.4804 C   0  0  0  0  0  0  0  0  0  0  0  0
   11.2280   12.9135   17.5669 C   0  0  0  0  0  0  0  0  0  0  0  0
   12.3782    5.4231   20.7777 C   0  0  0  0  0  0  0  0  0  0  0  0
    7.7365    4.6508   21.6987 C   0  0  0  0  0  0  0  0  0  0  0  0
   13.0186   11.0102   18.0020 C   0  0  0  0  0  0  0  0  0  0  0  0
    8.6628    5.7088   21.8871 N   0  0  0  0  0  0  0  0  0  0  0  0
    5.6516    3.5258   21.9140 C   0  0  0  0  0  0  0  0  0  0  0  0
   11.5863    9.6815   19.4539 C   0  0  0  0  0  0  0  0  0  0  0  0
   12.9648    4.1543   20.9205 C   0  0  0  0  0  0  0  0  0  0  0  0
    8.2089    3.6265   20.8929 C   0  0  0  0  0  0  0  0  0  0  0  0
    7.3827    2.5724   20.5432 C   0  0  0  0  0  0  0  0  0  0  0  0
   11.1529    7.2750   20.8025 C   0  0  0  0  0  0  0  0  0  0  0  0
   10.2573    8.3215   20.9827 C   0  0  0  0  0  0  0  0  0  0  0  0
   11.1606    5.9378   21.2366 N   0  0  0  0  0  0  0  0  0  0  0  0
    9.8932   11.6736   19.0677 O   0  0  0  0  0  0  0  0  0  0  0  0
    6.4470    4.5850   22.2321 C   0  0  0  0  0  0  0  0  0  0  0  0
    8.4619    6.9895   22.2968 C   0  0  0  0  0  0  0  0  0  0  0  0
   12.2747    7.5102   20.0420 C   0  0  0  0  0  0  0  0  0  0  0  0
   14.2544    6.2142   19.4191 C   0  0  0  0  0  0  0  0  0  0  0  0
   13.0695    6.3705   20.0375 N   0  0  0  0  0  0  0  0  0  0  0  0
    9.1913    8.0876   21.8361 N   0  0  0  0  0  0  0  0  0  0  0  0
   10.4739    9.4813   20.2889 C   0  0  0  0  0  0  0  0  0  0  0  0
    7.5551    7.1270   23.1200 O   0  0  0  0  0  0  0  0  0  0  0  0
  1 11  4  0
  1 21  4  0
  2  4  1  0
  2  8  1  0
  2 11  1  0
  3 10  4  0
  3 14  4  0
  4  5  1  0
  4 18  2  0
  6 12  1  0
  6 17  4  0
  6 23  4  0
  7  9  1  0
  7 13  4  0
  7 19  4  0
  9 20  1  0
 10 19  4  0
 11 25  4  0
 13 14  4  0
 15 16  4  0
 15 17  4  0
 15 21  4  0
 16 24  1  0
 16 25  4  0
 20 24  1  0
 20 26  2  0
 21 23  4  0
 22 23  1  0
M  END
$$$$

 Created by Python create_sdf_string function

 26 28  0  0  0  0  0  0  0  0999 V2000
   12.4616    8.6700   19.4180 N   0  0  0  0  0  0  0  0  0  0  0  0
   11.8329   10.8148   18.6769 N   0  0  0  0  0  0  0  0  0  0  0  0
    6.1021    2.5564   21.0678 C   0  0  0  0  0  0  0  0  0  0  0  0
   10.9097   11.8051   18.4804 C   0  0  0  0  0  0  0  0  0  0  0  0
   11.2280   12.9135   17.5669 C   0  0  0  0  0  0  0  0  0  0  0  0
   12.3782    5.4231   20.7777 C   0  0  0  0  0  0  0  0  0  0  0  0
    7.7365    4.6508   21.6987 C   0  0  0  0  0  0  0  0  0  0  0  0
   13.0186   11.0102   18.0020 C   0  0  0  0  0  0  0  0  0  0  0  0
    8.6628    5.7088   21.8871 N   0  0  0  0  0  0  0  0  0  0  0  0
    5.6516    3.5258   21.9140 C   0  0  0  0  0  0  0  0  0  0  0  0
   11.5863    9.6815   19.4539 C   0  0  0  0  0  0  0  0  0  0  0  0
   12.9648    4.1543   20.9205 C   0  0  0  0  0  0  0  0  0  0  0  0
    8.2089    3.6265   20.8929 C   0  0  0  0  0  0  0  0  0  0  0  0
    7.3827    2.5724   20.5432 C   0  0  0  0  0  0  0  0  0  0  0  0
   11.1529    7.2750   20.8025 C   0  0  0  0  0  0  0  0  0  0  0  0
   10.2573    8.3215   20.9827 C   0  0  0  0  0  0  0  0  0  0  0  0
   11.1606    5.9378   21.2366 N   0  0  0  0  0  0  0  0  0  0  0  0
    9.8932   11.6736   19.0677 O   0  0  0  0  0  0  0  0  0  0  0  0
    6.4470    4.5850   22.2321 C   0  0  0  0  0  0  0  0  0  0  0  0
    8.4619    6.9895   22.2968 C   0  0  0  0  0  0  0  0  0  0  0  0
   12.2747    7.5102   20.0420 C   0  0  0  0  0  0  0  0  0  0  0  0
   14.2544    6.2142   19.4191 C   0  0  0  0  0  0  0  0  0  0  0  0
   13.0695    6.3705   20.0375 N   0  0  0  0  0  0  0  0  0  0  0  0
    9.1913    8.0876   21.8361 N   0  0  0  0  0  0  0  0  0  0  0  0
   10.4739    9.4813   20.2889 C   0  0  0  0  0  0  0  0  0  0  0  0
    7.5551    7.1270   23.1200 O   0  0  0  0  0  0  0  0  0  0  0  0
  1 11  4  0
  1 21  4  0
  2  4  1  0
  2  8  1  0
  2 11  1  0
  3 10  4  0
  3 14  4  0
  4  5  1  0
  4 18  2  0
  6 12  1  0
  6 17  4  0
  6 23  4  0
  7  9  1  0
  7 13  4  0
  7 19  4  0
  9 20  1  0
 10 19  4  0
 11 25  4  0
 13 14  4  0
 15 16  4  0
 15 17  4  0
 15 21  4  0
 16 24  1  0
 16 25  4  0
 20 24  1  0
 20 26  2  0
 21 23  4  0
 22 23  1  0
M  END
$$$$

 Created by Python create_sdf_string function

 26 28  0  0  0  0  0  0  0  0999 V2000
   12.4616    8.6700   19.4180 N   0  0  0  0  0  0  0  0  0  0  0  0
   11.8329   10.8148   18.6769 N   0  0  0  0  0  0  0  0  0  0  0  0
    6.1021    2.5564   21.0678 C   0  0  0  0  0  0  0  0  0  0  0  0
   10.9097   11.8051   18.4804 C   0  0  0  0  0  0  0  0  0  0  0  0
   11.2280   12.9135   17.5669 C   0  0  0  0  0  0  0  0  0  0  0  0
   12.3782    5.4231   20.7777 C   0  0  0  0  0  0  0  0  0  0  0  0
    7.7365    4.6508   21.6987 C   0  0  0  0  0  0  0  0  0  0  0  0
   13.0186   11.0102   18.0020 C   0  0  0  0  0  0  0  0  0  0  0  0
    8.6628    5.7088   21.8871 N   0  0  0  0  0  0  0  0  0  0  0  0
    5.6516    3.5258   21.9140 C   0  0  0  0  0  0  0  0  0  0  0  0
   11.5863    9.6815   19.4539 C   0  0  0  0  0  0  0  0  0  0  0  0
   12.9648    4.1543   20.9205 C   0  0  0  0  0  0  0  0  0  0  0  0
    8.2089    3.6265   20.8929 C   0  0  0  0  0  0  0  0  0  0  0  0
    7.3827    2.5724   20.5432 C   0  0  0  0  0  0  0  0  0  0  0  0
   11.1529    7.2750   20.8025 C   0  0  0  0  0  0  0  0  0  0  0  0
   10.2573    8.3215   20.9827 C   0  0  0  0  0  0  0  0  0  0  0  0
   11.1606    5.9378   21.2366 N   0  0  0  0  0  0  0  0  0  0  0  0
    9.8932   11.6736   19.0677 O   0  0  0  0  0  0  0  0  0  0  0  0
    6.4470    4.5850   22.2321 C   0  0  0  0  0  0  0  0  0  0  0  0
    8.4619    6.9895   22.2968 C   0  0  0  0  0  0  0  0  0  0  0  0
   12.2747    7.5102   20.0420 C   0  0  0  0  0  0  0  0  0  0  0  0
   14.2544    6.2142   19.4191 C   0  0  0  0  0  0  0  0  0  0  0  0
   13.0695    6.3705   20.0375 N   0  0  0  0  0  0  0  0  0  0  0  0
    9.1913    8.0876   21.8361 N   0  0  0  0  0  0  0  0  0  0  0  0
   10.4739    9.4813   20.2889 C   0  0  0  0  0  0  0  0  0  0  0  0
    7.5551    7.1270   23.1200 O   0  0  0  0  0  0  0  0  0  0  0  0
  1 11  4  0
  1 21  4  0
  2  4  1  0
  2  8  1  0
  2 11  1  0
  3 10  4  0
  3 14  4  0
  4  5  1  0
  4 18  2  0
  6 12  1  0
  6 17  4  0
  6 23  4  0
  7  9  1  0
  7 13  4  0
  7 19  4  0
  9 20  1  0
 10 19  4  0
 11 25  4  0
 13 14  4  0
 15 16  4  0
 15 17  4  0
 15 21  4  0
 16 24  1  0
 16 25  4  0
 20 24  1  0
 20 26  2  0
 21 23  4  0
 22 23  1  0
M  END
$$$$

 Created by Python create_sdf_string function

 26 28  0  0  0  0  0  0  0  0999 V2000
   12.4616    8.6700   19.4180 N   0  0  0  0  0  0  0  0  0  0  0  0
   11.8329   10.8148   18.6769 N   0  0  0  0  0  0  0  0  0  0  0  0
    6.1021    2.5564   21.0678 C   0  0  0  0  0  0  0  0  0  0  0  0
   10.9097   11.8051   18.4804 C   0  0  0  0  0  0  0  0  0  0  0  0
   11.2280   12.9135   17.5669 C   0  0  0  0  0  0  0  0  0  0  0  0
   12.3782    5.4231   20.7777 C   0  0  0  0  0  0  0  0  0  0  0  0
    7.7365    4.6508   21.6987 C   0  0  0  0  0  0  0  0  0  0  0  0
   13.0186   11.0102   18.0020 C   0  0  0  0  0  0  0  0  0  0  0  0
    8.6628    5.7088   21.8871 N   0  0  0  0  0  0  0  0  0  0  0  0
    5.6516    3.5258   21.9140 C   0  0  0  0  0  0  0  0  0  0  0  0
   11.5863    9.6815   19.4539 C   0  0  0  0  0  0  0  0  0  0  0  0
   12.9648    4.1543   20.9205 C   0  0  0  0  0  0  0  0  0  0  0  0
    8.2089    3.6265   20.8929 C   0  0  0  0  0  0  0  0  0  0  0  0
    7.3827    2.5724   20.5432 C   0  0  0  0  0  0  0  0  0  0  0  0
   11.1529    7.2750   20.8025 C   0  0  0  0  0  0  0  0  0  0  0  0
   10.2573    8.3215   20.9827 C   0  0  0  0  0  0  0  0  0  0  0  0
   11.1606    5.9378   21.2366 N   0  0  0  0  0  0  0  0  0  0  0  0
    9.8932   11.6736   19.0677 O   0  0  0  0  0  0  0  0  0  0  0  0
    6.4470    4.5850   22.2321 C   0  0  0  0  0  0  0  0  0  0  0  0
    8.4619    6.9895   22.2968 C   0  0  0  0  0  0  0  0  0  0  0  0
   12.2747    7.5102   20.0420 C   0  0  0  0  0  0  0  0  0  0  0  0
   14.2544    6.2142   19.4191 C   0  0  0  0  0  0  0  0  0  0  0  0
   13.0695    6.3705   20.0375 N   0  0  0  0  0  0  0  0  0  0  0  0
    9.1913    8.0876   21.8361 N   0  0  0  0  0  0  0  0  0  0  0  0
   10.4739    9.4813   20.2889 C   0  0  0  0  0  0  0  0  0  0  0  0
    7.5551    7.1270   23.1200 O   0  0  0  0  0  0  0  0  0  0  0  0
  1 11  4  0
  1 21  4  0
  2  4  1  0
  2  8  1  0
  2 11  1  0
  3 10  4  0
  3 14  4  0
  4  5  1  0
  4 18  2  0
  6 12  1  0
  6 17  4  0
  6 23  4  0
  7  9  1  0
  7 13  4  0
  7 19  4  0
  9 20  1  0
 10 19  4  0
 11 25  4  0
 13 14  4  0
 15 16  4  0
 15 17  4  0
 15 21  4  0
 16 24  1  0
 16 25  4  0
 20 24  1  0
 20 26  2  0
 21 23  4  0
 22 23  1  0
M  END
$$$$

 Created by Python create_sdf_string function

 26 28  0  0  0  0  0  0  0  0999 V2000
   12.4616    8.6700   19.4180 N   0  0  0  0  0  0  0  0  0  0  0  0
   11.8329   10.8148   18.6769 N   0  0  0  0  0  0  0  0  0  0  0  0
    6.1021    2.5564   21.0678 C   0  0  0  0  0  0  0  0  0  0  0  0
   10.9097   11.8051   18.4804 C   0  0  0  0  0  0  0  0  0  0  0  0
   11.2280   12.9135   17.5669 C   0  0  0  0  0  0  0  0  0  0  0  0
   12.3782    5.4231   20.7777 C   0  0  0  0  0  0  0  0  0  0  0  0
    7.7365    4.6508   21.6987 C   0  0  0  0  0  0  0  0  0  0  0  0
   13.0186   11.0102   18.0020 C   0  0  0  0  0  0  0  0  0  0  0  0
    8.6628    5.7088   21.8871 N   0  0  0  0  0  0  0  0  0  0  0  0
    5.6516    3.5258   21.9140 C   0  0  0  0  0  0  0  0  0  0  0  0
   11.5863    9.6815   19.4539 C   0  0  0  0  0  0  0  0  0  0  0  0
   12.9648    4.1543   20.9205 C   0  0  0  0  0  0  0  0  0  0  0  0
    8.2089    3.6265   20.8929 C   0  0  0  0  0  0  0  0  0  0  0  0
    7.3827    2.5724   20.5432 C   0  0  0  0  0  0  0  0  0  0  0  0
   11.1529    7.2750   20.8025 C   0  0  0  0  0  0  0  0  0  0  0  0
   10.2573    8.3215   20.9827 C   0  0  0  0  0  0  0  0  0  0  0  0
   11.1606    5.9378   21.2366 N   0  0  0  0  0  0  0  0  0  0  0  0
    9.8932   11.6736   19.0677 O   0  0  0  0  0  0  0  0  0  0  0  0
    6.4470    4.5850   22.2321 C   0  0  0  0  0  0  0  0  0  0  0  0
    8.4619    6.9895   22.2968 C   0  0  0  0  0  0  0  0  0  0  0  0
   12.2747    7.5102   20.0420 C   0  0  0  0  0  0  0  0  0  0  0  0
   14.2544    6.2142   19.4191 C   0  0  0  0  0  0  0  0  0  0  0  0
   13.0695    6.3705   20.0375 N   0  0  0  0  0  0  0  0  0  0  0  0
    9.1913    8.0876   21.8361 N   0  0  0  0  0  0  0  0  0  0  0  0
   10.4739    9.4813   20.2889 C   0  0  0  0  0  0  0  0  0  0  0  0
    7.5551    7.1270   23.1200 O   0  0  0  0  0  0  0  0  0  0  0  0
  1 11  4  0
  1 21  4  0
  2  4  1  0
  2  8  1  0
  2 11  1  0
  3 10  4  0
  3 14  4  0
  4  5  1  0
  4 18  2  0
  6 12  1  0
  6 17  4  0
  6 23  4  0
  7  9  1  0
  7 13  4  0
  7 19  4  0
  9 20  1  0
 10 19  4  0
 11 25  4  0
 13 14  4  0
 15 16  4  0
 15 17  4  0
 15 21  4  0
 16 24  1  0
 16 25  4  0
 20 24  1  0
 20 26  2  0
 21 23  4  0
 22 23  1  0
M  END
$$$$

 Created by Python create_sdf_string function

 26 28  0  0  0  0  0  0  0  0999 V2000
   12.4616    8.6700   19.4180 N   0  0  0  0  0  0  0  0  0  0  0  0
   11.8329   10.8148   18.6769 N   0  0  0  0  0  0  0  0  0  0  0  0
    6.1021    2.5564   21.0678 C   0  0  0  0  0  0  0  0  0  0  0  0
   10.9097   11.8051   18.4804 C   0  0  0  0  0  0  0  0  0  0  0  0
   11.2280   12.9135   17.5669 C   0  0  0  0  0  0  0  0  0  0  0  0
   12.3782    5.4231   20.7777 C   0  0  0  0  0  0  0  0  0  0  0  0
    7.7365    4.6508   21.6987 C   0  0  0  0  0  0  0  0  0  0  0  0
   13.0186   11.0102   18.0020 C   0  0  0  0  0  0  0  0  0  0  0  0
    8.6628    5.7088   21.8871 N   0  0  0  0  0  0  0  0  0  0  0  0
    5.6516    3.5258   21.9140 C   0  0  0  0  0  0  0  0  0  0  0  0
   11.5863    9.6815   19.4539 C   0  0  0  0  0  0  0  0  0  0  0  0
   12.9648    4.1543   20.9205 C   0  0  0  0  0  0  0  0  0  0  0  0
    8.2089    3.6265   20.8929 C   0  0  0  0  0  0  0  0  0  0  0  0
    7.3827    2.5724   20.5432 C   0  0  0  0  0  0  0  0  0  0  0  0
   11.1529    7.2750   20.8025 C   0  0  0  0  0  0  0  0  0  0  0  0
   10.2573    8.3215   20.9827 C   0  0  0  0  0  0  0  0  0  0  0  0
   11.1606    5.9378   21.2366 N   0  0  0  0  0  0  0  0  0  0  0  0
    9.8932   11.6736   19.0677 O   0  0  0  0  0  0  0  0  0  0  0  0
    6.4470    4.5850   22.2321 C   0  0  0  0  0  0  0  0  0  0  0  0
    8.4619    6.9895   22.2968 C   0  0  0  0  0  0  0  0  0  0  0  0
   12.2747    7.5102   20.0420 C   0  0  0  0  0  0  0  0  0  0  0  0
   14.2544    6.2142   19.4191 C   0  0  0  0  0  0  0  0  0  0  0  0
   13.0695    6.3705   20.0375 N   0  0  0  0  0  0  0  0  0  0  0  0
    9.1913    8.0876   21.8361 N   0  0  0  0  0  0  0  0  0  0  0  0
   10.4739    9.4813   20.2889 C   0  0  0  0  0  0  0  0  0  0  0  0
    7.5551    7.1270   23.1200 O   0  0  0  0  0  0  0  0  0  0  0  0
  1 11  4  0
  1 21  4  0
  2  4  1  0
  2  8  1  0
  2 11  1  0
  3 10  4  0
  3 14  4  0
  4  5  1  0
  4 18  2  0
  6 12  1  0
  6 17  4  0
  6 23  4  0
  7  9  1  0
  7 13  4  0
  7 19  4  0
  9 20  1  0
 10 19  4  0
 11 25  4  0
 13 14  4  0
 15 16  4  0
 15 17  4  0
 15 21  4  0
 16 24  1  0
 16 25  4  0
 20 24  1  0
 20 26  2  0
 21 23  4  0
 22 23  1  0
M  END
$$$$

 Created by Python create_sdf_string function

 26 28  0  0  0  0  0  0  0  0999 V2000
   12.4616    8.6700   19.4180 N   0  0  0  0  0  0  0  0  0  0  0  0
   11.8329   10.8148   18.6769 N   0  0  0  0  0  0  0  0  0  0  0  0
    6.1021    2.5564   21.0678 C   0  0  0  0  0  0  0  0  0  0  0  0
   10.9097   11.8051   18.4804 C   0  0  0  0  0  0  0  0  0  0  0  0
   11.2280   12.9135   17.5669 C   0  0  0  0  0  0  0  0  0  0  0  0
   12.3782    5.4231   20.7777 C   0  0  0  0  0  0  0  0  0  0  0  0
    7.7365    4.6508   21.6987 C   0  0  0  0  0  0  0  0  0  0  0  0
   13.0186   11.0102   18.0020 C   0  0  0  0  0  0  0  0  0  0  0  0
    8.6628    5.7088   21.8871 N   0  0  0  0  0  0  0  0  0  0  0  0
    5.6516    3.5258   21.9140 C   0  0  0  0  0  0  0  0  0  0  0  0
   11.5863    9.6815   19.4539 C   0  0  0  0  0  0  0  0  0  0  0  0
   12.9648    4.1543   20.9205 C   0  0  0  0  0  0  0  0  0  0  0  0
    8.2089    3.6265   20.8929 C   0  0  0  0  0  0  0  0  0  0  0  0
    7.3827    2.5724   20.5432 C   0  0  0  0  0  0  0  0  0  0  0  0
   11.1529    7.2750   20.8025 C   0  0  0  0  0  0  0  0  0  0  0  0
   10.2573    8.3215   20.9827 C   0  0  0  0  0  0  0  0  0  0  0  0
   11.1606    5.9378   21.2366 N   0  0  0  0  0  0  0  0  0  0  0  0
    9.8932   11.6736   19.0677 O   0  0  0  0  0  0  0  0  0  0  0  0
    6.4470    4.5850   22.2321 C   0  0  0  0  0  0  0  0  0  0  0  0
    8.4619    6.9895   22.2968 C   0  0  0  0  0  0  0  0  0  0  0  0
   12.2747    7.5102   20.0420 C   0  0  0  0  0  0  0  0  0  0  0  0
   14.2544    6.2142   19.4191 C   0  0  0  0  0  0  0  0  0  0  0  0
   13.0695    6.3705   20.0375 N   0  0  0  0  0  0  0  0  0  0  0  0
    9.1913    8.0876   21.8361 N   0  0  0  0  0  0  0  0  0  0  0  0
   10.4739    9.4813   20.2889 C   0  0  0  0  0  0  0  0  0  0  0  0
    7.5551    7.1270   23.1200 O   0  0  0  0  0  0  0  0  0  0  0  0
  1 11  4  0
  1 21  4  0
  2  4  1  0
  2  8  1  0
  2 11  1  0
  3 10  4  0
  3 14  4  0
  4  5  1  0
  4 18  2  0
  6 12  1  0
  6 17  4  0
  6 23  4  0
  7  9  1  0
  7 13  4  0
  7 19  4  0
  9 20  1  0
 10 19  4  0
 11 25  4  0
 13 14  4  0
 15 16  4  0
 15 17  4  0
 15 21  4  0
 16 24  1  0
 16 25  4  0
 20 24  1  0
 20 26  2  0
 21 23  4  0
 22 23  1  0
M  END
$$$$

 Created by Python create_sdf_string function

 26 28  0  0  0  0  0  0  0  0999 V2000
   12.4616    8.6700   19.4180 N   0  0  0  0  0  0  0  0  0  0  0  0
   11.8329   10.8148   18.6769 N   0  0  0  0  0  0  0  0  0  0  0  0
    6.1021    2.5564   21.0678 C   0  0  0  0  0  0  0  0  0  0  0  0
   10.9097   11.8051   18.4804 C   0  0  0  0  0  0  0  0  0  0  0  0
   11.2280   12.9135   17.5669 C   0  0  0  0  0  0  0  0  0  0  0  0
   12.3782    5.4231   20.7777 C   0  0  0  0  0  0  0  0  0  0  0  0
    7.7365    4.6508   21.6987 C   0  0  0  0  0  0  0  0  0  0  0  0
   13.0186   11.0102   18.0020 C   0  0  0  0  0  0  0  0  0  0  0  0
    8.6628    5.7088   21.8871 N   0  0  0  0  0  0  0  0  0  0  0  0
    5.6516    3.5258   21.9140 C   0  0  0  0  0  0  0  0  0  0  0  0
   11.5863    9.6815   19.4539 C   0  0  0  0  0  0  0  0  0  0  0  0
   12.9648    4.1543   20.9205 C   0  0  0  0  0  0  0  0  0  0  0  0
    8.2089    3.6265   20.8929 C   0  0  0  0  0  0  0  0  0  0  0  0
    7.3827    2.5724   20.5432 C   0  0  0  0  0  0  0  0  0  0  0  0
   11.1529    7.2750   20.8025 C   0  0  0  0  0  0  0  0  0  0  0  0
   10.2573    8.3215   20.9827 C   0  0  0  0  0  0  0  0  0  0  0  0
   11.1606    5.9378   21.2366 N   0  0  0  0  0  0  0  0  0  0  0  0
    9.8932   11.6736   19.0677 O   0  0  0  0  0  0  0  0  0  0  0  0
    6.4470    4.5850   22.2321 C   0  0  0  0  0  0  0  0  0  0  0  0
    8.4619    6.9895   22.2968 C   0  0  0  0  0  0  0  0  0  0  0  0
   12.2747    7.5102   20.0420 C   0  0  0  0  0  0  0  0  0  0  0  0
   14.2544    6.2142   19.4191 C   0  0  0  0  0  0  0  0  0  0  0  0
   13.0695    6.3705   20.0375 N   0  0  0  0  0  0  0  0  0  0  0  0
    9.1913    8.0876   21.8361 N   0  0  0  0  0  0  0  0  0  0  0  0
   10.4739    9.4813   20.2889 C   0  0  0  0  0  0  0  0  0  0  0  0
    7.5551    7.1270   23.1200 O   0  0  0  0  0  0  0  0  0  0  0  0
  1 11  4  0
  1 21  4  0
  2  4  1  0
  2  8  1  0
  2 11  1  0
  3 10  4  0
  3 14  4  0
  4  5  1  0
  4 18  2  0
  6 12  1  0
  6 17  4  0
  6 23  4  0
  7  9  1  0
  7 13  4  0
  7 19  4  0
  9 20  1  0
 10 19  4  0
 11 25  4  0
 13 14  4  0
 15 16  4  0
 15 17  4  0
 15 21  4  0
 16 24  1  0
 16 25  4  0
 20 24  1  0
 20 26  2  0
 21 23  4  0
 22 23  1  0
M  END
$$$$

 Created by Python create_sdf_string function

 26 28  0  0  0  0  0  0  0  0999 V2000
   12.4616    8.6700   19.4180 N   0  0  0  0  0  0  0  0  0  0  0  0
   11.8329   10.8148   18.6769 N   0  0  0  0  0  0  0  0  0  0  0  0
    6.1021    2.5564   21.0678 C   0  0  0  0  0  0  0  0  0  0  0  0
   10.9097   11.8051   18.4804 C   0  0  0  0  0  0  0  0  0  0  0  0
   11.2280   12.9135   17.5669 C   0  0  0  0  0  0  0  0  0  0  0  0
   12.3782    5.4231   20.7777 C   0  0  0  0  0  0  0  0  0  0  0  0
    7.7365    4.6508   21.6987 C   0  0  0  0  0  0  0  0  0  0  0  0
   13.0186   11.0102   18.0020 C   0  0  0  0  0  0  0  0  0  0  0  0
    8.6628    5.7088   21.8871 N   0  0  0  0  0  0  0  0  0  0  0  0
    5.6516    3.5258   21.9140 C   0  0  0  0  0  0  0  0  0  0  0  0
   11.5863    9.6815   19.4539 C   0  0  0  0  0  0  0  0  0  0  0  0
   12.9648    4.1543   20.9205 C   0  0  0  0  0  0  0  0  0  0  0  0
    8.2089    3.6265   20.8929 C   0  0  0  0  0  0  0  0  0  0  0  0
    7.3827    2.5724   20.5432 C   0  0  0  0  0  0  0  0  0  0  0  0
   11.1529    7.2750   20.8025 C   0  0  0  0  0  0  0  0  0  0  0  0
   10.2573    8.3215   20.9827 C   0  0  0  0  0  0  0  0  0  0  0  0
   11.1606    5.9378   21.2366 N   0  0  0  0  0  0  0  0  0  0  0  0
    9.8932   11.6736   19.0677 O   0  0  0  0  0  0  0  0  0  0  0  0
    6.4470    4.5850   22.2321 C   0  0  0  0  0  0  0  0  0  0  0  0
    8.4619    6.9895   22.2968 C   0  0  0  0  0  0  0  0  0  0  0  0
   12.2747    7.5102   20.0420 C   0  0  0  0  0  0  0  0  0  0  0  0
   14.2544    6.2142   19.4191 C   0  0  0  0  0  0  0  0  0  0  0  0
   13.0695    6.3705   20.0375 N   0  0  0  0  0  0  0  0  0  0  0  0
    9.1913    8.0876   21.8361 N   0  0  0  0  0  0  0  0  0  0  0  0
   10.4739    9.4813   20.2889 C   0  0  0  0  0  0  0  0  0  0  0  0
    7.5551    7.1270   23.1200 O   0  0  0  0  0  0  0  0  0  0  0  0
  1 11  4  0
  1 21  4  0
  2  4  1  0
  2  8  1  0
  2 11  1  0
  3 10  4  0
  3 14  4  0
  4  5  1  0
  4 18  2  0
  6 12  1  0
  6 17  4  0
  6 23  4  0
  7  9  1  0
  7 13  4  0
  7 19  4  0
  9 20  1  0
 10 19  4  0
 11 25  4  0
 13 14  4  0
 15 16  4  0
 15 17  4  0
 15 21  4  0
 16 24  1  0
 16 25  4  0
 20 24  1  0
 20 26  2  0
 21 23  4  0
 22 23  1  0
M  END
$$$$

 Created by Python create_sdf_string function

 26 28  0  0  0  0  0  0  0  0999 V2000
   12.4616    8.6700   19.4180 N   0  0  0  0  0  0  0  0  0  0  0  0
   11.8329   10.8148   18.6769 N   0  0  0  0  0  0  0  0  0  0  0  0
    6.1021    2.5564   21.0678 C   0  0  0  0  0  0  0  0  0  0  0  0
   10.9097   11.8051   18.4804 C   0  0  0  0  0  0  0  0  0  0  0  0
   11.2280   12.9135   17.5669 C   0  0  0  0  0  0  0  0  0  0  0  0
   12.3782    5.4231   20.7777 C   0  0  0  0  0  0  0  0  0  0  0  0
    7.7365    4.6508   21.6987 C   0  0  0  0  0  0  0  0  0  0  0  0
   13.0186   11.0102   18.0020 C   0  0  0  0  0  0  0  0  0  0  0  0
    8.6628    5.7088   21.8871 N   0  0  0  0  0  0  0  0  0  0  0  0
    5.6516    3.5258   21.9140 C   0  0  0  0  0  0  0  0  0  0  0  0
   11.5863    9.6815   19.4539 C   0  0  0  0  0  0  0  0  0  0  0  0
   12.9648    4.1543   20.9205 C   0  0  0  0  0  0  0  0  0  0  0  0
    8.2089    3.6265   20.8929 C   0  0  0  0  0  0  0  0  0  0  0  0
    7.3827    2.5724   20.5432 C   0  0  0  0  0  0  0  0  0  0  0  0
   11.1529    7.2750   20.8025 C   0  0  0  0  0  0  0  0  0  0  0  0
   10.2573    8.3215   20.9827 C   0  0  0  0  0  0  0  0  0  0  0  0
   11.1606    5.9378   21.2366 N   0  0  0  0  0  0  0  0  0  0  0  0
    9.8932   11.6736   19.0677 O   0  0  0  0  0  0  0  0  0  0  0  0
    6.4470    4.5850   22.2321 C   0  0  0  0  0  0  0  0  0  0  0  0
    8.4619    6.9895   22.2968 C   0  0  0  0  0  0  0  0  0  0  0  0
   12.2747    7.5102   20.0420 C   0  0  0  0  0  0  0  0  0  0  0  0
   14.2544    6.2142   19.4191 C   0  0  0  0  0  0  0  0  0  0  0  0
   13.0695    6.3705   20.0375 N   0  0  0  0  0  0  0  0  0  0  0  0
    9.1913    8.0876   21.8361 N   0  0  0  0  0  0  0  0  0  0  0  0
   10.4739    9.4813   20.2889 C   0  0  0  0  0  0  0  0  0  0  0  0
    7.5551    7.1270   23.1200 O   0  0  0  0  0  0  0  0  0  0  0  0
  1 11  4  0
  1 21  4  0
  2  4  1  0
  2  8  1  0
  2 11  1  0
  3 10  4  0
  3 14  4  0
  4  5  1  0
  4 18  2  0
  6 12  1  0
  6 17  4  0
  6 23  4  0
  7  9  1  0
  7 13  4  0
  7 19  4  0
  9 20  1  0
 10 19  4  0
 11 25  4  0
 13 14  4  0
 15 16  4  0
 15 17  4  0
 15 21  4  0
 16 24  1  0
 16 25  4  0
 20 24  1  0
 20 26  2  0
 21 23  4  0
 22 23  1  0
M  END
$$$$

 Created by Python create_sdf_string function

 26 28  0  0  0  0  0  0  0  0999 V2000
   12.4616    8.6700   19.4180 N   0  0  0  0  0  0  0  0  0  0  0  0
   11.8329   10.8148   18.6769 N   0  0  0  0  0  0  0  0  0  0  0  0
    6.1021    2.5564   21.0678 C   0  0  0  0  0  0  0  0  0  0  0  0
   10.9097   11.8051   18.4804 C   0  0  0  0  0  0  0  0  0  0  0  0
   11.2280   12.9135   17.5669 C   0  0  0  0  0  0  0  0  0  0  0  0
   12.3782    5.4231   20.7777 C   0  0  0  0  0  0  0  0  0  0  0  0
    7.7365    4.6508   21.6987 C   0  0  0  0  0  0  0  0  0  0  0  0
   13.0186   11.0102   18.0020 C   0  0  0  0  0  0  0  0  0  0  0  0
    8.6628    5.7088   21.8871 N   0  0  0  0  0  0  0  0  0  0  0  0
    5.6516    3.5258   21.9140 C   0  0  0  0  0  0  0  0  0  0  0  0
   11.5863    9.6815   19.4539 C   0  0  0  0  0  0  0  0  0  0  0  0
   12.9648    4.1543   20.9205 C   0  0  0  0  0  0  0  0  0  0  0  0
    8.2089    3.6265   20.8929 C   0  0  0  0  0  0  0  0  0  0  0  0
    7.3827    2.5724   20.5432 C   0  0  0  0  0  0  0  0  0  0  0  0
   11.1529    7.2750   20.8025 C   0  0  0  0  0  0  0  0  0  0  0  0
   10.2573    8.3215   20.9827 C   0  0  0  0  0  0  0  0  0  0  0  0
   11.1606    5.9378   21.2366 N   0  0  0  0  0  0  0  0  0  0  0  0
    9.8932   11.6736   19.0677 O   0  0  0  0  0  0  0  0  0  0  0  0
    6.4470    4.5850   22.2321 C   0  0  0  0  0  0  0  0  0  0  0  0
    8.4619    6.9895   22.2968 C   0  0  0  0  0  0  0  0  0  0  0  0
   12.2747    7.5102   20.0420 C   0  0  0  0  0  0  0  0  0  0  0  0
   14.2544    6.2142   19.4191 C   0  0  0  0  0  0  0  0  0  0  0  0
   13.0695    6.3705   20.0375 N   0  0  0  0  0  0  0  0  0  0  0  0
    9.1913    8.0876   21.8361 N   0  0  0  0  0  0  0  0  0  0  0  0
   10.4739    9.4813   20.2889 C   0  0  0  0  0  0  0  0  0  0  0  0
    7.5551    7.1270   23.1200 O   0  0  0  0  0  0  0  0  0  0  0  0
  1 11  4  0
  1 21  4  0
  2  4  1  0
  2  8  1  0
  2 11  1  0
  3 10  4  0
  3 14  4  0
  4  5  1  0
  4 18  2  0
  6 12  1  0
  6 17  4  0
  6 23  4  0
  7  9  1  0
  7 13  4  0
  7 19  4  0
  9 20  1  0
 10 19  4  0
 11 25  4  0
 13 14  4  0
 15 16  4  0
 15 17  4  0
 15 21  4  0
 16 24  1  0
 16 25  4  0
 20 24  1  0
 20 26  2  0
 21 23  4  0
 22 23  1  0
M  END
$$$$

 Created by Python create_sdf_string function

 26 28  0  0  0  0  0  0  0  0999 V2000
   12.4616    8.6700   19.4180 N   0  0  0  0  0  0  0  0  0  0  0  0
   11.8329   10.8148   18.6769 N   0  0  0  0  0  0  0  0  0  0  0  0
    6.1021    2.5564   21.0678 C   0  0  0  0  0  0  0  0  0  0  0  0
   10.9097   11.8051   18.4804 C   0  0  0  0  0  0  0  0  0  0  0  0
   11.2280   12.9135   17.5669 C   0  0  0  0  0  0  0  0  0  0  0  0
   12.3782    5.4231   20.7777 C   0  0  0  0  0  0  0  0  0  0  0  0
    7.7365    4.6508   21.6987 C   0  0  0  0  0  0  0  0  0  0  0  0
   13.0186   11.0102   18.0020 C   0  0  0  0  0  0  0  0  0  0  0  0
    8.6628    5.7088   21.8871 N   0  0  0  0  0  0  0  0  0  0  0  0
    5.6516    3.5258   21.9140 C   0  0  0  0  0  0  0  0  0  0  0  0
   11.5863    9.6815   19.4539 C   0  0  0  0  0  0  0  0  0  0  0  0
   12.9648    4.1543   20.9205 C   0  0  0  0  0  0  0  0  0  0  0  0
    8.2089    3.6265   20.8929 C   0  0  0  0  0  0  0  0  0  0  0  0
    7.3827    2.5724   20.5432 C   0  0  0  0  0  0  0  0  0  0  0  0
   11.1529    7.2750   20.8025 C   0  0  0  0  0  0  0  0  0  0  0  0
   10.2573    8.3215   20.9827 C   0  0  0  0  0  0  0  0  0  0  0  0
   11.1606    5.9378   21.2366 N   0  0  0  0  0  0  0  0  0  0  0  0
    9.8932   11.6736   19.0677 O   0  0  0  0  0  0  0  0  0  0  0  0
    6.4470    4.5850   22.2321 C   0  0  0  0  0  0  0  0  0  0  0  0
    8.4619    6.9895   22.2968 C   0  0  0  0  0  0  0  0  0  0  0  0
   12.2747    7.5102   20.0420 C   0  0  0  0  0  0  0  0  0  0  0  0
   14.2544    6.2142   19.4191 C   0  0  0  0  0  0  0  0  0  0  0  0
   13.0695    6.3705   20.0375 N   0  0  0  0  0  0  0  0  0  0  0  0
    9.1913    8.0876   21.8361 N   0  0  0  0  0  0  0  0  0  0  0  0
   10.4739    9.4813   20.2889 C   0  0  0  0  0  0  0  0  0  0  0  0
    7.5551    7.1270   23.1200 O   0  0  0  0  0  0  0  0  0  0  0  0
  1 11  4  0
  1 21  4  0
  2  4  1  0
  2  8  1  0
  2 11  1  0
  3 10  4  0
  3 14  4  0
  4  5  1  0
  4 18  2  0
  6 12  1  0
  6 17  4  0
  6 23  4  0
  7  9  1  0
  7 13  4  0
  7 19  4  0
  9 20  1  0
 10 19  4  0
 11 25  4  0
 13 14  4  0
 15 16  4  0
 15 17  4  0
 15 21  4  0
 16 24  1  0
 16 25  4  0
 20 24  1  0
 20 26  2  0
 21 23  4  0
 22 23  1  0
M  END
$$$$

 Created by Python create_sdf_string function

 26 28  0  0  0  0  0  0  0  0999 V2000
   12.4616    8.6700   19.4180 N   0  0  0  0  0  0  0  0  0  0  0  0
   11.8329   10.8148   18.6769 N   0  0  0  0  0  0  0  0  0  0  0  0
    6.1021    2.5564   21.0678 C   0  0  0  0  0  0  0  0  0  0  0  0
   10.9097   11.8051   18.4804 C   0  0  0  0  0  0  0  0  0  0  0  0
   11.2280   12.9135   17.5669 C   0  0  0  0  0  0  0  0  0  0  0  0
   12.3782    5.4231   20.7777 C   0  0  0  0  0  0  0  0  0  0  0  0
    7.7365    4.6508   21.6987 C   0  0  0  0  0  0  0  0  0  0  0  0
   13.0186   11.0102   18.0020 C   0  0  0  0  0  0  0  0  0  0  0  0
    8.6628    5.7088   21.8871 N   0  0  0  0  0  0  0  0  0  0  0  0
    5.6516    3.5258   21.9140 C   0  0  0  0  0  0  0  0  0  0  0  0
   11.5863    9.6815   19.4539 C   0  0  0  0  0  0  0  0  0  0  0  0
   12.9648    4.1543   20.9205 C   0  0  0  0  0  0  0  0  0  0  0  0
    8.2089    3.6265   20.8929 C   0  0  0  0  0  0  0  0  0  0  0  0
    7.3827    2.5724   20.5432 C   0  0  0  0  0  0  0  0  0  0  0  0
   11.1529    7.2750   20.8025 C   0  0  0  0  0  0  0  0  0  0  0  0
   10.2573    8.3215   20.9827 C   0  0  0  0  0  0  0  0  0  0  0  0
   11.1606    5.9378   21.2366 N   0  0  0  0  0  0  0  0  0  0  0  0
    9.8932   11.6736   19.0677 O   0  0  0  0  0  0  0  0  0  0  0  0
    6.4470    4.5850   22.2321 C   0  0  0  0  0  0  0  0  0  0  0  0
    8.4619    6.9895   22.2968 C   0  0  0  0  0  0  0  0  0  0  0  0
   12.2747    7.5102   20.0420 C   0  0  0  0  0  0  0  0  0  0  0  0
   14.2544    6.2142   19.4191 C   0  0  0  0  0  0  0  0  0  0  0  0
   13.0695    6.3705   20.0375 N   0  0  0  0  0  0  0  0  0  0  0  0
    9.1913    8.0876   21.8361 N   0  0  0  0  0  0  0  0  0  0  0  0
   10.4739    9.4813   20.2889 C   0  0  0  0  0  0  0  0  0  0  0  0
    7.5551    7.1270   23.1200 O   0  0  0  0  0  0  0  0  0  0  0  0
  1 11  4  0
  1 21  4  0
  2  4  1  0
  2  8  1  0
  2 11  1  0
  3 10  4  0
  3 14  4  0
  4  5  1  0
  4 18  2  0
  6 12  1  0
  6 17  4  0
  6 23  4  0
  7  9  1  0
  7 13  4  0
  7 19  4  0
  9 20  1  0
 10 19  4  0
 11 25  4  0
 13 14  4  0
 15 16  4  0
 15 17  4  0
 15 21  4  0
 16 24  1  0
 16 25  4  0
 20 24  1  0
 20 26  2  0
 21 23  4  0
 22 23  1  0
M  END
$$$$

 Created by Python create_sdf_string function

 26 28  0  0  0  0  0  0  0  0999 V2000
   12.4616    8.6700   19.4180 N   0  0  0  0  0  0  0  0  0  0  0  0
   11.8329   10.8148   18.6769 N   0  0  0  0  0  0  0  0  0  0  0  0
    6.1021    2.5564   21.0678 C   0  0  0  0  0  0  0  0  0  0  0  0
   10.9097   11.8051   18.4804 C   0  0  0  0  0  0  0  0  0  0  0  0
   11.2280   12.9135   17.5669 C   0  0  0  0  0  0  0  0  0  0  0  0
   12.3782    5.4231   20.7777 C   0  0  0  0  0  0  0  0  0  0  0  0
    7.7365    4.6508   21.6987 C   0  0  0  0  0  0  0  0  0  0  0  0
   13.0186   11.0102   18.0020 C   0  0  0  0  0  0  0  0  0  0  0  0
    8.6628    5.7088   21.8871 N   0  0  0  0  0  0  0  0  0  0  0  0
    5.6516    3.5258   21.9140 C   0  0  0  0  0  0  0  0  0  0  0  0
   11.5863    9.6815   19.4539 C   0  0  0  0  0  0  0  0  0  0  0  0
   12.9648    4.1543   20.9205 C   0  0  0  0  0  0  0  0  0  0  0  0
    8.2089    3.6265   20.8929 C   0  0  0  0  0  0  0  0  0  0  0  0
    7.3827    2.5724   20.5432 C   0  0  0  0  0  0  0  0  0  0  0  0
   11.1529    7.2750   20.8025 C   0  0  0  0  0  0  0  0  0  0  0  0
   10.2573    8.3215   20.9827 C   0  0  0  0  0  0  0  0  0  0  0  0
   11.1606    5.9378   21.2366 N   0  0  0  0  0  0  0  0  0  0  0  0
    9.8932   11.6736   19.0677 O   0  0  0  0  0  0  0  0  0  0  0  0
    6.4470    4.5850   22.2321 C   0  0  0  0  0  0  0  0  0  0  0  0
    8.4619    6.9895   22.2968 C   0  0  0  0  0  0  0  0  0  0  0  0
   12.2747    7.5102   20.0420 C   0  0  0  0  0  0  0  0  0  0  0  0
   14.2544    6.2142   19.4191 C   0  0  0  0  0  0  0  0  0  0  0  0
   13.0695    6.3705   20.0375 N   0  0  0  0  0  0  0  0  0  0  0  0
    9.1913    8.0876   21.8361 N   0  0  0  0  0  0  0  0  0  0  0  0
   10.4739    9.4813   20.2889 C   0  0  0  0  0  0  0  0  0  0  0  0
    7.5551    7.1270   23.1200 O   0  0  0  0  0  0  0  0  0  0  0  0
  1 11  4  0
  1 21  4  0
  2  4  1  0
  2  8  1  0
  2 11  1  0
  3 10  4  0
  3 14  4  0
  4  5  1  0
  4 18  2  0
  6 12  1  0
  6 17  4  0
  6 23  4  0
  7  9  1  0
  7 13  4  0
  7 19  4  0
  9 20  1  0
 10 19  4  0
 11 25  4  0
 13 14  4  0
 15 16  4  0
 15 17  4  0
 15 21  4  0
 16 24  1  0
 16 25  4  0
 20 24  1  0
 20 26  2  0
 21 23  4  0
 22 23  1  0
M  END
$$$$

 Created by Python create_sdf_string function

 26 28  0  0  0  0  0  0  0  0999 V2000
   12.4616    8.6700   19.4180 N   0  0  0  0  0  0  0  0  0  0  0  0
   11.8329   10.8148   18.6769 N   0  0  0  0  0  0  0  0  0  0  0  0
    6.1021    2.5564   21.0678 C   0  0  0  0  0  0  0  0  0  0  0  0
   10.9097   11.8051   18.4804 C   0  0  0  0  0  0  0  0  0  0  0  0
   11.2280   12.9135   17.5669 C   0  0  0  0  0  0  0  0  0  0  0  0
   12.3782    5.4231   20.7777 C   0  0  0  0  0  0  0  0  0  0  0  0
    7.7365    4.6508   21.6987 C   0  0  0  0  0  0  0  0  0  0  0  0
   13.0186   11.0102   18.0020 C   0  0  0  0  0  0  0  0  0  0  0  0
    8.6628    5.7088   21.8871 N   0  0  0  0  0  0  0  0  0  0  0  0
    5.6516    3.5258   21.9140 C   0  0  0  0  0  0  0  0  0  0  0  0
   11.5863    9.6815   19.4539 C   0  0  0  0  0  0  0  0  0  0  0  0
   12.9648    4.1543   20.9205 C   0  0  0  0  0  0  0  0  0  0  0  0
    8.2089    3.6265   20.8929 C   0  0  0  0  0  0  0  0  0  0  0  0
    7.3827    2.5724   20.5432 C   0  0  0  0  0  0  0  0  0  0  0  0
   11.1529    7.2750   20.8025 C   0  0  0  0  0  0  0  0  0  0  0  0
   10.2573    8.3215   20.9827 C   0  0  0  0  0  0  0  0  0  0  0  0
   11.1606    5.9378   21.2366 N   0  0  0  0  0  0  0  0  0  0  0  0
    9.8932   11.6736   19.0677 O   0  0  0  0  0  0  0  0  0  0  0  0
    6.4470    4.5850   22.2321 C   0  0  0  0  0  0  0  0  0  0  0  0
    8.4619    6.9895   22.2968 C   0  0  0  0  0  0  0  0  0  0  0  0
   12.2747    7.5102   20.0420 C   0  0  0  0  0  0  0  0  0  0  0  0
   14.2544    6.2142   19.4191 C   0  0  0  0  0  0  0  0  0  0  0  0
   13.0695    6.3705   20.0375 N   0  0  0  0  0  0  0  0  0  0  0  0
    9.1913    8.0876   21.8361 N   0  0  0  0  0  0  0  0  0  0  0  0
   10.4739    9.4813   20.2889 C   0  0  0  0  0  0  0  0  0  0  0  0
    7.5551    7.1270   23.1200 O   0  0  0  0  0  0  0  0  0  0  0  0
  1 11  4  0
  1 21  4  0
  2  4  1  0
  2  8  1  0
  2 11  1  0
  3 10  4  0
  3 14  4  0
  4  5  1  0
  4 18  2  0
  6 12  1  0
  6 17  4  0
  6 23  4  0
  7  9  1  0
  7 13  4  0
  7 19  4  0
  9 20  1  0
 10 19  4  0
 11 25  4  0
 13 14  4  0
 15 16  4  0
 15 17  4  0
 15 21  4  0
 16 24  1  0
 16 25  4  0
 20 24  1  0
 20 26  2  0
 21 23  4  0
 22 23  1  0
M  END
$$$$

 Created by Python create_sdf_string function

 26 28  0  0  0  0  0  0  0  0999 V2000
   12.4616    8.6700   19.4180 N   0  0  0  0  0  0  0  0  0  0  0  0
   11.8329   10.8148   18.6769 N   0  0  0  0  0  0  0  0  0  0  0  0
    6.1021    2.5564   21.0678 C   0  0  0  0  0  0  0  0  0  0  0  0
   10.9097   11.8051   18.4804 C   0  0  0  0  0  0  0  0  0  0  0  0
   11.2280   12.9135   17.5669 C   0  0  0  0  0  0  0  0  0  0  0  0
   12.3782    5.4231   20.7777 C   0  0  0  0  0  0  0  0  0  0  0  0
    7.7365    4.6508   21.6987 C   0  0  0  0  0  0  0  0  0  0  0  0
   13.0186   11.0102   18.0020 C   0  0  0  0  0  0  0  0  0  0  0  0
    8.6628    5.7088   21.8871 N   0  0  0  0  0  0  0  0  0  0  0  0
    5.6516    3.5258   21.9140 C   0  0  0  0  0  0  0  0  0  0  0  0
   11.5863    9.6815   19.4539 C   0  0  0  0  0  0  0  0  0  0  0  0
   12.9648    4.1543   20.9205 C   0  0  0  0  0  0  0  0  0  0  0  0
    8.2089    3.6265   20.8929 C   0  0  0  0  0  0  0  0  0  0  0  0
    7.3827    2.5724   20.5432 C   0  0  0  0  0  0  0  0  0  0  0  0
   11.1529    7.2750   20.8025 C   0  0  0  0  0  0  0  0  0  0  0  0
   10.2573    8.3215   20.9827 C   0  0  0  0  0  0  0  0  0  0  0  0
   11.1606    5.9378   21.2366 N   0  0  0  0  0  0  0  0  0  0  0  0
    9.8932   11.6736   19.0677 O   0  0  0  0  0  0  0  0  0  0  0  0
    6.4470    4.5850   22.2321 C   0  0  0  0  0  0  0  0  0  0  0  0
    8.4619    6.9895   22.2968 C   0  0  0  0  0  0  0  0  0  0  0  0
   12.2747    7.5102   20.0420 C   0  0  0  0  0  0  0  0  0  0  0  0
   14.2544    6.2142   19.4191 C   0  0  0  0  0  0  0  0  0  0  0  0
   13.0695    6.3705   20.0375 N   0  0  0  0  0  0  0  0  0  0  0  0
    9.1913    8.0876   21.8361 N   0  0  0  0  0  0  0  0  0  0  0  0
   10.4739    9.4813   20.2889 C   0  0  0  0  0  0  0  0  0  0  0  0
    7.5551    7.1270   23.1200 O   0  0  0  0  0  0  0  0  0  0  0  0
  1 11  4  0
  1 21  4  0
  2  4  1  0
  2  8  1  0
  2 11  1  0
  3 10  4  0
  3 14  4  0
  4  5  1  0
  4 18  2  0
  6 12  1  0
  6 17  4  0
  6 23  4  0
  7  9  1  0
  7 13  4  0
  7 19  4  0
  9 20  1  0
 10 19  4  0
 11 25  4  0
 13 14  4  0
 15 16  4  0
 15 17  4  0
 15 21  4  0
 16 24  1  0
 16 25  4  0
 20 24  1  0
 20 26  2  0
 21 23  4  0
 22 23  1  0
M  END
$$$$

 Created by Python create_sdf_string function

 26 28  0  0  0  0  0  0  0  0999 V2000
   12.4616    8.6700   19.4180 N   0  0  0  0  0  0  0  0  0  0  0  0
   11.8329   10.8148   18.6769 N   0  0  0  0  0  0  0  0  0  0  0  0
    6.1021    2.5564   21.0678 C   0  0  0  0  0  0  0  0  0  0  0  0
   10.9097   11.8051   18.4804 C   0  0  0  0  0  0  0  0  0  0  0  0
   11.2280   12.9135   17.5669 C   0  0  0  0  0  0  0  0  0  0  0  0
   12.3782    5.4231   20.7777 C   0  0  0  0  0  0  0  0  0  0  0  0
    7.7365    4.6508   21.6987 C   0  0  0  0  0  0  0  0  0  0  0  0
   13.0186   11.0102   18.0020 C   0  0  0  0  0  0  0  0  0  0  0  0
    8.6628    5.7088   21.8871 N   0  0  0  0  0  0  0  0  0  0  0  0
    5.6516    3.5258   21.9140 C   0  0  0  0  0  0  0  0  0  0  0  0
   11.5863    9.6815   19.4539 C   0  0  0  0  0  0  0  0  0  0  0  0
   12.9648    4.1543   20.9205 C   0  0  0  0  0  0  0  0  0  0  0  0
    8.2089    3.6265   20.8929 C   0  0  0  0  0  0  0  0  0  0  0  0
    7.3827    2.5724   20.5432 C   0  0  0  0  0  0  0  0  0  0  0  0
   11.1529    7.2750   20.8025 C   0  0  0  0  0  0  0  0  0  0  0  0
   10.2573    8.3215   20.9827 C   0  0  0  0  0  0  0  0  0  0  0  0
   11.1606    5.9378   21.2366 N   0  0  0  0  0  0  0  0  0  0  0  0
    9.8932   11.6736   19.0677 O   0  0  0  0  0  0  0  0  0  0  0  0
    6.4470    4.5850   22.2321 C   0  0  0  0  0  0  0  0  0  0  0  0
    8.4619    6.9895   22.2968 C   0  0  0  0  0  0  0  0  0  0  0  0
   12.2747    7.5102   20.0420 C   0  0  0  0  0  0  0  0  0  0  0  0
   14.2544    6.2142   19.4191 C   0  0  0  0  0  0  0  0  0  0  0  0
   13.0695    6.3705   20.0375 N   0  0  0  0  0  0  0  0  0  0  0  0
    9.1913    8.0876   21.8361 N   0  0  0  0  0  0  0  0  0  0  0  0
   10.4739    9.4813   20.2889 C   0  0  0  0  0  0  0  0  0  0  0  0
    7.5551    7.1270   23.1200 O   0  0  0  0  0  0  0  0  0  0  0  0
  1 11  4  0
  1 21  4  0
  2  4  1  0
  2  8  1  0
  2 11  1  0
  3 10  4  0
  3 14  4  0
  4  5  1  0
  4 18  2  0
  6 12  1  0
  6 17  4  0
  6 23  4  0
  7  9  1  0
  7 13  4  0
  7 19  4  0
  9 20  1  0
 10 19  4  0
 11 25  4  0
 13 14  4  0
 15 16  4  0
 15 17  4  0
 15 21  4  0
 16 24  1  0
 16 25  4  0
 20 24  1  0
 20 26  2  0
 21 23  4  0
 22 23  1  0
M  END
$$$$

 Created by Python create_sdf_string function

 26 28  0  0  0  0  0  0  0  0999 V2000
   12.4616    8.6700   19.4180 N   0  0  0  0  0  0  0  0  0  0  0  0
   11.8329   10.8148   18.6769 N   0  0  0  0  0  0  0  0  0  0  0  0
    6.1021    2.5564   21.0678 C   0  0  0  0  0  0  0  0  0  0  0  0
   10.9097   11.8051   18.4804 C   0  0  0  0  0  0  0  0  0  0  0  0
   11.2280   12.9135   17.5669 C   0  0  0  0  0  0  0  0  0  0  0  0
   12.3782    5.4231   20.7777 C   0  0  0  0  0  0  0  0  0  0  0  0
    7.7365    4.6508   21.6987 C   0  0  0  0  0  0  0  0  0  0  0  0
   13.0186   11.0102   18.0020 C   0  0  0  0  0  0  0  0  0  0  0  0
    8.6628    5.7088   21.8871 N   0  0  0  0  0  0  0  0  0  0  0  0
    5.6516    3.5258   21.9140 C   0  0  0  0  0  0  0  0  0  0  0  0
   11.5863    9.6815   19.4539 C   0  0  0  0  0  0  0  0  0  0  0  0
   12.9648    4.1543   20.9205 C   0  0  0  0  0  0  0  0  0  0  0  0
    8.2089    3.6265   20.8929 C   0  0  0  0  0  0  0  0  0  0  0  0
    7.3827    2.5724   20.5432 C   0  0  0  0  0  0  0  0  0  0  0  0
   11.1529    7.2750   20.8025 C   0  0  0  0  0  0  0  0  0  0  0  0
   10.2573    8.3215   20.9827 C   0  0  0  0  0  0  0  0  0  0  0  0
   11.1606    5.9378   21.2366 N   0  0  0  0  0  0  0  0  0  0  0  0
    9.8932   11.6736   19.0677 O   0  0  0  0  0  0  0  0  0  0  0  0
    6.4470    4.5850   22.2321 C   0  0  0  0  0  0  0  0  0  0  0  0
    8.4619    6.9895   22.2968 C   0  0  0  0  0  0  0  0  0  0  0  0
   12.2747    7.5102   20.0420 C   0  0  0  0  0  0  0  0  0  0  0  0
   14.2544    6.2142   19.4191 C   0  0  0  0  0  0  0  0  0  0  0  0
   13.0695    6.3705   20.0375 N   0  0  0  0  0  0  0  0  0  0  0  0
    9.1913    8.0876   21.8361 N   0  0  0  0  0  0  0  0  0  0  0  0
   10.4739    9.4813   20.2889 C   0  0  0  0  0  0  0  0  0  0  0  0
    7.5551    7.1270   23.1200 O   0  0  0  0  0  0  0  0  0  0  0  0
  1 11  4  0
  1 21  4  0
  2  4  1  0
  2  8  1  0
  2 11  1  0
  3 10  4  0
  3 14  4  0
  4  5  1  0
  4 18  2  0
  6 12  1  0
  6 17  4  0
  6 23  4  0
  7  9  1  0
  7 13  4  0
  7 19  4  0
  9 20  1  0
 10 19  4  0
 11 25  4  0
 13 14  4  0
 15 16  4  0
 15 17  4  0
 15 21  4  0
 16 24  1  0
 16 25  4  0
 20 24  1  0
 20 26  2  0
 21 23  4  0
 22 23  1  0
M  END
$$$$

 Created by Python create_sdf_string function

 26 28  0  0  0  0  0  0  0  0999 V2000
   12.4616    8.6700   19.4180 N   0  0  0  0  0  0  0  0  0  0  0  0
   11.8329   10.8148   18.6769 N   0  0  0  0  0  0  0  0  0  0  0  0
    6.1021    2.5564   21.0678 C   0  0  0  0  0  0  0  0  0  0  0  0
   10.9097   11.8051   18.4804 C   0  0  0  0  0  0  0  0  0  0  0  0
   11.2280   12.9135   17.5669 C   0  0  0  0  0  0  0  0  0  0  0  0
   12.3782    5.4231   20.7777 C   0  0  0  0  0  0  0  0  0  0  0  0
    7.7365    4.6508   21.6987 C   0  0  0  0  0  0  0  0  0  0  0  0
   13.0186   11.0102   18.0020 C   0  0  0  0  0  0  0  0  0  0  0  0
    8.6628    5.7088   21.8871 N   0  0  0  0  0  0  0  0  0  0  0  0
    5.6516    3.5258   21.9140 C   0  0  0  0  0  0  0  0  0  0  0  0
   11.5863    9.6815   19.4539 C   0  0  0  0  0  0  0  0  0  0  0  0
   12.9648    4.1543   20.9205 C   0  0  0  0  0  0  0  0  0  0  0  0
    8.2089    3.6265   20.8929 C   0  0  0  0  0  0  0  0  0  0  0  0
    7.3827    2.5724   20.5432 C   0  0  0  0  0  0  0  0  0  0  0  0
   11.1529    7.2750   20.8025 C   0  0  0  0  0  0  0  0  0  0  0  0
   10.2573    8.3215   20.9827 C   0  0  0  0  0  0  0  0  0  0  0  0
   11.1606    5.9378   21.2366 N   0  0  0  0  0  0  0  0  0  0  0  0
    9.8932   11.6736   19.0677 O   0  0  0  0  0  0  0  0  0  0  0  0
    6.4470    4.5850   22.2321 C   0  0  0  0  0  0  0  0  0  0  0  0
    8.4619    6.9895   22.2968 C   0  0  0  0  0  0  0  0  0  0  0  0
   12.2747    7.5102   20.0420 C   0  0  0  0  0  0  0  0  0  0  0  0
   14.2544    6.2142   19.4191 C   0  0  0  0  0  0  0  0  0  0  0  0
   13.0695    6.3705   20.0375 N   0  0  0  0  0  0  0  0  0  0  0  0
    9.1913    8.0876   21.8361 N   0  0  0  0  0  0  0  0  0  0  0  0
   10.4739    9.4813   20.2889 C   0  0  0  0  0  0  0  0  0  0  0  0
    7.5551    7.1270   23.1200 O   0  0  0  0  0  0  0  0  0  0  0  0
  1 11  4  0
  1 21  4  0
  2  4  1  0
  2  8  1  0
  2 11  1  0
  3 10  4  0
  3 14  4  0
  4  5  1  0
  4 18  2  0
  6 12  1  0
  6 17  4  0
  6 23  4  0
  7  9  1  0
  7 13  4  0
  7 19  4  0
  9 20  1  0
 10 19  4  0
 11 25  4  0
 13 14  4  0
 15 16  4  0
 15 17  4  0
 15 21  4  0
 16 24  1  0
 16 25  4  0
 20 24  1  0
 20 26  2  0
 21 23  4  0
 22 23  1  0
M  END
$$$$

 Created by Python create_sdf_string function

 26 28  0  0  0  0  0  0  0  0999 V2000
   12.4616    8.6700   19.4180 N   0  0  0  0  0  0  0  0  0  0  0  0
   11.8329   10.8148   18.6769 N   0  0  0  0  0  0  0  0  0  0  0  0
    6.1021    2.5564   21.0678 C   0  0  0  0  0  0  0  0  0  0  0  0
   10.9097   11.8051   18.4804 C   0  0  0  0  0  0  0  0  0  0  0  0
   11.2280   12.9135   17.5669 C   0  0  0  0  0  0  0  0  0  0  0  0
   12.3782    5.4231   20.7777 C   0  0  0  0  0  0  0  0  0  0  0  0
    7.7365    4.6508   21.6987 C   0  0  0  0  0  0  0  0  0  0  0  0
   13.0186   11.0102   18.0020 C   0  0  0  0  0  0  0  0  0  0  0  0
    8.6628    5.7088   21.8871 N   0  0  0  0  0  0  0  0  0  0  0  0
    5.6516    3.5258   21.9140 C   0  0  0  0  0  0  0  0  0  0  0  0
   11.5863    9.6815   19.4539 C   0  0  0  0  0  0  0  0  0  0  0  0
   12.9648    4.1543   20.9205 C   0  0  0  0  0  0  0  0  0  0  0  0
    8.2089    3.6265   20.8929 C   0  0  0  0  0  0  0  0  0  0  0  0
    7.3827    2.5724   20.5432 C   0  0  0  0  0  0  0  0  0  0  0  0
   11.1529    7.2750   20.8025 C   0  0  0  0  0  0  0  0  0  0  0  0
   10.2573    8.3215   20.9827 C   0  0  0  0  0  0  0  0  0  0  0  0
   11.1606    5.9378   21.2366 N   0  0  0  0  0  0  0  0  0  0  0  0
    9.8932   11.6736   19.0677 O   0  0  0  0  0  0  0  0  0  0  0  0
    6.4470    4.5850   22.2321 C   0  0  0  0  0  0  0  0  0  0  0  0
    8.4619    6.9895   22.2968 C   0  0  0  0  0  0  0  0  0  0  0  0
   12.2747    7.5102   20.0420 C   0  0  0  0  0  0  0  0  0  0  0  0
   14.2544    6.2142   19.4191 C   0  0  0  0  0  0  0  0  0  0  0  0
   13.0695    6.3705   20.0375 N   0  0  0  0  0  0  0  0  0  0  0  0
    9.1913    8.0876   21.8361 N   0  0  0  0  0  0  0  0  0  0  0  0
   10.4739    9.4813   20.2889 C   0  0  0  0  0  0  0  0  0  0  0  0
    7.5551    7.1270   23.1200 O   0  0  0  0  0  0  0  0  0  0  0  0
  1 11  4  0
  1 21  4  0
  2  4  1  0
  2  8  1  0
  2 11  1  0
  3 10  4  0
  3 14  4  0
  4  5  1  0
  4 18  2  0
  6 12  1  0
  6 17  4  0
  6 23  4  0
  7  9  1  0
  7 13  4  0
  7 19  4  0
  9 20  1  0
 10 19  4  0
 11 25  4  0
 13 14  4  0
 15 16  4  0
 15 17  4  0
 15 21  4  0
 16 24  1  0
 16 25  4  0
 20 24  1  0
 20 26  2  0
 21 23  4  0
 22 23  1  0
M  END
$$$$

 Created by Python create_sdf_string function

 26 28  0  0  0  0  0  0  0  0999 V2000
   12.4616    8.6700   19.4180 N   0  0  0  0  0  0  0  0  0  0  0  0
   11.8329   10.8148   18.6769 N   0  0  0  0  0  0  0  0  0  0  0  0
    6.1021    2.5564   21.0678 C   0  0  0  0  0  0  0  0  0  0  0  0
   10.9097   11.8051   18.4804 C   0  0  0  0  0  0  0  0  0  0  0  0
   11.2280   12.9135   17.5669 C   0  0  0  0  0  0  0  0  0  0  0  0
   12.3782    5.4231   20.7777 C   0  0  0  0  0  0  0  0  0  0  0  0
    7.7365    4.6508   21.6987 C   0  0  0  0  0  0  0  0  0  0  0  0
   13.0186   11.0102   18.0020 C   0  0  0  0  0  0  0  0  0  0  0  0
    8.6628    5.7088   21.8871 N   0  0  0  0  0  0  0  0  0  0  0  0
    5.6516    3.5258   21.9140 C   0  0  0  0  0  0  0  0  0  0  0  0
   11.5863    9.6815   19.4539 C   0  0  0  0  0  0  0  0  0  0  0  0
   12.9648    4.1543   20.9205 C   0  0  0  0  0  0  0  0  0  0  0  0
    8.2089    3.6265   20.8929 C   0  0  0  0  0  0  0  0  0  0  0  0
    7.3827    2.5724   20.5432 C   0  0  0  0  0  0  0  0  0  0  0  0
   11.1529    7.2750   20.8025 C   0  0  0  0  0  0  0  0  0  0  0  0
   10.2573    8.3215   20.9827 C   0  0  0  0  0  0  0  0  0  0  0  0
   11.1606    5.9378   21.2366 N   0  0  0  0  0  0  0  0  0  0  0  0
    9.8932   11.6736   19.0677 O   0  0  0  0  0  0  0  0  0  0  0  0
    6.4470    4.5850   22.2321 C   0  0  0  0  0  0  0  0  0  0  0  0
    8.4619    6.9895   22.2968 C   0  0  0  0  0  0  0  0  0  0  0  0
   12.2747    7.5102   20.0420 C   0  0  0  0  0  0  0  0  0  0  0  0
   14.2544    6.2142   19.4191 C   0  0  0  0  0  0  0  0  0  0  0  0
   13.0695    6.3705   20.0375 N   0  0  0  0  0  0  0  0  0  0  0  0
    9.1913    8.0876   21.8361 N   0  0  0  0  0  0  0  0  0  0  0  0
   10.4739    9.4813   20.2889 C   0  0  0  0  0  0  0  0  0  0  0  0
    7.5551    7.1270   23.1200 O   0  0  0  0  0  0  0  0  0  0  0  0
  1 11  4  0
  1 21  4  0
  2  4  1  0
  2  8  1  0
  2 11  1  0
  3 10  4  0
  3 14  4  0
  4  5  1  0
  4 18  2  0
  6 12  1  0
  6 17  4  0
  6 23  4  0
  7  9  1  0
  7 13  4  0
  7 19  4  0
  9 20  1  0
 10 19  4  0
 11 25  4  0
 13 14  4  0
 15 16  4  0
 15 17  4  0
 15 21  4  0
 16 24  1  0
 16 25  4  0
 20 24  1  0
 20 26  2  0
 21 23  4  0
 22 23  1  0
M  END
$$$$

 Created by Python create_sdf_string function

 26 28  0  0  0  0  0  0  0  0999 V2000
   12.4616    8.6700   19.4180 N   0  0  0  0  0  0  0  0  0  0  0  0
   11.8329   10.8148   18.6769 N   0  0  0  0  0  0  0  0  0  0  0  0
    6.1021    2.5564   21.0678 C   0  0  0  0  0  0  0  0  0  0  0  0
   10.9097   11.8051   18.4804 C   0  0  0  0  0  0  0  0  0  0  0  0
   11.2280   12.9135   17.5669 C   0  0  0  0  0  0  0  0  0  0  0  0
   12.3782    5.4231   20.7777 C   0  0  0  0  0  0  0  0  0  0  0  0
    7.7365    4.6508   21.6987 C   0  0  0  0  0  0  0  0  0  0  0  0
   13.0186   11.0102   18.0020 C   0  0  0  0  0  0  0  0  0  0  0  0
    8.6628    5.7088   21.8871 N   0  0  0  0  0  0  0  0  0  0  0  0
    5.6516    3.5258   21.9140 C   0  0  0  0  0  0  0  0  0  0  0  0
   11.5863    9.6815   19.4539 C   0  0  0  0  0  0  0  0  0  0  0  0
   12.9648    4.1543   20.9205 C   0  0  0  0  0  0  0  0  0  0  0  0
    8.2089    3.6265   20.8929 C   0  0  0  0  0  0  0  0  0  0  0  0
    7.3827    2.5724   20.5432 C   0  0  0  0  0  0  0  0  0  0  0  0
   11.1529    7.2750   20.8025 C   0  0  0  0  0  0  0  0  0  0  0  0
   10.2573    8.3215   20.9827 C   0  0  0  0  0  0  0  0  0  0  0  0
   11.1606    5.9378   21.2366 N   0  0  0  0  0  0  0  0  0  0  0  0
    9.8932   11.6736   19.0677 O   0  0  0  0  0  0  0  0  0  0  0  0
    6.4470    4.5850   22.2321 C   0  0  0  0  0  0  0  0  0  0  0  0
    8.4619    6.9895   22.2968 C   0  0  0  0  0  0  0  0  0  0  0  0
   12.2747    7.5102   20.0420 C   0  0  0  0  0  0  0  0  0  0  0  0
   14.2544    6.2142   19.4191 C   0  0  0  0  0  0  0  0  0  0  0  0
   13.0695    6.3705   20.0375 N   0  0  0  0  0  0  0  0  0  0  0  0
    9.1913    8.0876   21.8361 N   0  0  0  0  0  0  0  0  0  0  0  0
   10.4739    9.4813   20.2889 C   0  0  0  0  0  0  0  0  0  0  0  0
    7.5551    7.1270   23.1200 O   0  0  0  0  0  0  0  0  0  0  0  0
  1 11  4  0
  1 21  4  0
  2  4  1  0
  2  8  1  0
  2 11  1  0
  3 10  4  0
  3 14  4  0
  4  5  1  0
  4 18  2  0
  6 12  1  0
  6 17  4  0
  6 23  4  0
  7  9  1  0
  7 13  4  0
  7 19  4  0
  9 20  1  0
 10 19  4  0
 11 25  4  0
 13 14  4  0
 15 16  4  0
 15 17  4  0
 15 21  4  0
 16 24  1  0
 16 25  4  0
 20 24  1  0
 20 26  2  0
 21 23  4  0
 22 23  1  0
M  END
$$$$

 Created by Python create_sdf_string function

 26 28  0  0  0  0  0  0  0  0999 V2000
   12.4616    8.6700   19.4180 N   0  0  0  0  0  0  0  0  0  0  0  0
   11.8329   10.8148   18.6769 N   0  0  0  0  0  0  0  0  0  0  0  0
    6.1021    2.5564   21.0678 C   0  0  0  0  0  0  0  0  0  0  0  0
   10.9097   11.8051   18.4804 C   0  0  0  0  0  0  0  0  0  0  0  0
   11.2280   12.9135   17.5669 C   0  0  0  0  0  0  0  0  0  0  0  0
   12.3782    5.4231   20.7777 C   0  0  0  0  0  0  0  0  0  0  0  0
    7.7365    4.6508   21.6987 C   0  0  0  0  0  0  0  0  0  0  0  0
   13.0186   11.0102   18.0020 C   0  0  0  0  0  0  0  0  0  0  0  0
    8.6628    5.7088   21.8871 N   0  0  0  0  0  0  0  0  0  0  0  0
    5.6516    3.5258   21.9140 C   0  0  0  0  0  0  0  0  0  0  0  0
   11.5863    9.6815   19.4539 C   0  0  0  0  0  0  0  0  0  0  0  0
   12.9648    4.1543   20.9205 C   0  0  0  0  0  0  0  0  0  0  0  0
    8.2089    3.6265   20.8929 C   0  0  0  0  0  0  0  0  0  0  0  0
    7.3827    2.5724   20.5432 C   0  0  0  0  0  0  0  0  0  0  0  0
   11.1529    7.2750   20.8025 C   0  0  0  0  0  0  0  0  0  0  0  0
   10.2573    8.3215   20.9827 C   0  0  0  0  0  0  0  0  0  0  0  0
   11.1606    5.9378   21.2366 N   0  0  0  0  0  0  0  0  0  0  0  0
    9.8932   11.6736   19.0677 O   0  0  0  0  0  0  0  0  0  0  0  0
    6.4470    4.5850   22.2321 C   0  0  0  0  0  0  0  0  0  0  0  0
    8.4619    6.9895   22.2968 C   0  0  0  0  0  0  0  0  0  0  0  0
   12.2747    7.5102   20.0420 C   0  0  0  0  0  0  0  0  0  0  0  0
   14.2544    6.2142   19.4191 C   0  0  0  0  0  0  0  0  0  0  0  0
   13.0695    6.3705   20.0375 N   0  0  0  0  0  0  0  0  0  0  0  0
    9.1913    8.0876   21.8361 N   0  0  0  0  0  0  0  0  0  0  0  0
   10.4739    9.4813   20.2889 C   0  0  0  0  0  0  0  0  0  0  0  0
    7.5551    7.1270   23.1200 O   0  0  0  0  0  0  0  0  0  0  0  0
  1 11  4  0
  1 21  4  0
  2  4  1  0
  2  8  1  0
  2 11  1  0
  3 10  4  0
  3 14  4  0
  4  5  1  0
  4 18  2  0
  6 12  1  0
  6 17  4  0
  6 23  4  0
  7  9  1  0
  7 13  4  0
  7 19  4  0
  9 20  1  0
 10 19  4  0
 11 25  4  0
 13 14  4  0
 15 16  4  0
 15 17  4  0
 15 21  4  0
 16 24  1  0
 16 25  4  0
 20 24  1  0
 20 26  2  0
 21 23  4  0
 22 23  1  0
M  END
$$$$

 Created by Python create_sdf_string function

 26 28  0  0  0  0  0  0  0  0999 V2000
   12.4616    8.6700   19.4180 N   0  0  0  0  0  0  0  0  0  0  0  0
   11.8329   10.8148   18.6769 N   0  0  0  0  0  0  0  0  0  0  0  0
    6.1021    2.5564   21.0678 C   0  0  0  0  0  0  0  0  0  0  0  0
   10.9097   11.8051   18.4804 C   0  0  0  0  0  0  0  0  0  0  0  0
   11.2280   12.9135   17.5669 C   0  0  0  0  0  0  0  0  0  0  0  0
   12.3782    5.4231   20.7777 C   0  0  0  0  0  0  0  0  0  0  0  0
    7.7365    4.6508   21.6987 C   0  0  0  0  0  0  0  0  0  0  0  0
   13.0186   11.0102   18.0020 C   0  0  0  0  0  0  0  0  0  0  0  0
    8.6628    5.7088   21.8871 N   0  0  0  0  0  0  0  0  0  0  0  0
    5.6516    3.5258   21.9140 C   0  0  0  0  0  0  0  0  0  0  0  0
   11.5863    9.6815   19.4539 C   0  0  0  0  0  0  0  0  0  0  0  0
   12.9648    4.1543   20.9205 C   0  0  0  0  0  0  0  0  0  0  0  0
    8.2089    3.6265   20.8929 C   0  0  0  0  0  0  0  0  0  0  0  0
    7.3827    2.5724   20.5432 C   0  0  0  0  0  0  0  0  0  0  0  0
   11.1529    7.2750   20.8025 C   0  0  0  0  0  0  0  0  0  0  0  0
   10.2573    8.3215   20.9827 C   0  0  0  0  0  0  0  0  0  0  0  0
   11.1606    5.9378   21.2366 N   0  0  0  0  0  0  0  0  0  0  0  0
    9.8932   11.6736   19.0677 O   0  0  0  0  0  0  0  0  0  0  0  0
    6.4470    4.5850   22.2321 C   0  0  0  0  0  0  0  0  0  0  0  0
    8.4619    6.9895   22.2968 C   0  0  0  0  0  0  0  0  0  0  0  0
   12.2747    7.5102   20.0420 C   0  0  0  0  0  0  0  0  0  0  0  0
   14.2544    6.2142   19.4191 C   0  0  0  0  0  0  0  0  0  0  0  0
   13.0695    6.3705   20.0375 N   0  0  0  0  0  0  0  0  0  0  0  0
    9.1913    8.0876   21.8361 N   0  0  0  0  0  0  0  0  0  0  0  0
   10.4739    9.4813   20.2889 C   0  0  0  0  0  0  0  0  0  0  0  0
    7.5551    7.1270   23.1200 O   0  0  0  0  0  0  0  0  0  0  0  0
  1 11  4  0
  1 21  4  0
  2  4  1  0
  2  8  1  0
  2 11  1  0
  3 10  4  0
  3 14  4  0
  4  5  1  0
  4 18  2  0
  6 12  1  0
  6 17  4  0
  6 23  4  0
  7  9  1  0
  7 13  4  0
  7 19  4  0
  9 20  1  0
 10 19  4  0
 11 25  4  0
 13 14  4  0
 15 16  4  0
 15 17  4  0
 15 21  4  0
 16 24  1  0
 16 25  4  0
 20 24  1  0
 20 26  2  0
 21 23  4  0
 22 23  1  0
M  END
$$$$

 Created by Python create_sdf_string function

 26 28  0  0  0  0  0  0  0  0999 V2000
   12.4616    8.6700   19.4180 N   0  0  0  0  0  0  0  0  0  0  0  0
   11.8329   10.8148   18.6769 N   0  0  0  0  0  0  0  0  0  0  0  0
    6.1021    2.5564   21.0678 C   0  0  0  0  0  0  0  0  0  0  0  0
   10.9097   11.8051   18.4804 C   0  0  0  0  0  0  0  0  0  0  0  0
   11.2280   12.9135   17.5669 C   0  0  0  0  0  0  0  0  0  0  0  0
   12.3782    5.4231   20.7777 C   0  0  0  0  0  0  0  0  0  0  0  0
    7.7365    4.6508   21.6987 C   0  0  0  0  0  0  0  0  0  0  0  0
   13.0186   11.0102   18.0020 C   0  0  0  0  0  0  0  0  0  0  0  0
    8.6628    5.7088   21.8871 N   0  0  0  0  0  0  0  0  0  0  0  0
    5.6516    3.5258   21.9140 C   0  0  0  0  0  0  0  0  0  0  0  0
   11.5863    9.6815   19.4539 C   0  0  0  0  0  0  0  0  0  0  0  0
   12.9648    4.1543   20.9205 C   0  0  0  0  0  0  0  0  0  0  0  0
    8.2089    3.6265   20.8929 C   0  0  0  0  0  0  0  0  0  0  0  0
    7.3827    2.5724   20.5432 C   0  0  0  0  0  0  0  0  0  0  0  0
   11.1529    7.2750   20.8025 C   0  0  0  0  0  0  0  0  0  0  0  0
   10.2573    8.3215   20.9827 C   0  0  0  0  0  0  0  0  0  0  0  0
   11.1606    5.9378   21.2366 N   0  0  0  0  0  0  0  0  0  0  0  0
    9.8932   11.6736   19.0677 O   0  0  0  0  0  0  0  0  0  0  0  0
    6.4470    4.5850   22.2321 C   0  0  0  0  0  0  0  0  0  0  0  0
    8.4619    6.9895   22.2968 C   0  0  0  0  0  0  0  0  0  0  0  0
   12.2747    7.5102   20.0420 C   0  0  0  0  0  0  0  0  0  0  0  0
   14.2544    6.2142   19.4191 C   0  0  0  0  0  0  0  0  0  0  0  0
   13.0695    6.3705   20.0375 N   0  0  0  0  0  0  0  0  0  0  0  0
    9.1913    8.0876   21.8361 N   0  0  0  0  0  0  0  0  0  0  0  0
   10.4739    9.4813   20.2889 C   0  0  0  0  0  0  0  0  0  0  0  0
    7.5551    7.1270   23.1200 O   0  0  0  0  0  0  0  0  0  0  0  0
  1 11  4  0
  1 21  4  0
  2  4  1  0
  2  8  1  0
  2 11  1  0
  3 10  4  0
  3 14  4  0
  4  5  1  0
  4 18  2  0
  6 12  1  0
  6 17  4  0
  6 23  4  0
  7  9  1  0
  7 13  4  0
  7 19  4  0
  9 20  1  0
 10 19  4  0
 11 25  4  0
 13 14  4  0
 15 16  4  0
 15 17  4  0
 15 21  4  0
 16 24  1  0
 16 25  4  0
 20 24  1  0
 20 26  2  0
 21 23  4  0
 22 23  1  0
M  END
$$$$

 Created by Python create_sdf_string function

 26 28  0  0  0  0  0  0  0  0999 V2000
   12.4616    8.6700   19.4180 N   0  0  0  0  0  0  0  0  0  0  0  0
   11.8329   10.8148   18.6769 N   0  0  0  0  0  0  0  0  0  0  0  0
    6.1021    2.5564   21.0678 C   0  0  0  0  0  0  0  0  0  0  0  0
   10.9097   11.8051   18.4804 C   0  0  0  0  0  0  0  0  0  0  0  0
   11.2280   12.9135   17.5669 C   0  0  0  0  0  0  0  0  0  0  0  0
   12.3782    5.4231   20.7777 C   0  0  0  0  0  0  0  0  0  0  0  0
    7.7365    4.6508   21.6987 C   0  0  0  0  0  0  0  0  0  0  0  0
   13.0186   11.0102   18.0020 C   0  0  0  0  0  0  0  0  0  0  0  0
    8.6628    5.7088   21.8871 N   0  0  0  0  0  0  0  0  0  0  0  0
    5.6516    3.5258   21.9140 C   0  0  0  0  0  0  0  0  0  0  0  0
   11.5863    9.6815   19.4539 C   0  0  0  0  0  0  0  0  0  0  0  0
   12.9648    4.1543   20.9205 C   0  0  0  0  0  0  0  0  0  0  0  0
    8.2089    3.6265   20.8929 C   0  0  0  0  0  0  0  0  0  0  0  0
    7.3827    2.5724   20.5432 C   0  0  0  0  0  0  0  0  0  0  0  0
   11.1529    7.2750   20.8025 C   0  0  0  0  0  0  0  0  0  0  0  0
   10.2573    8.3215   20.9827 C   0  0  0  0  0  0  0  0  0  0  0  0
   11.1606    5.9378   21.2366 N   0  0  0  0  0  0  0  0  0  0  0  0
    9.8932   11.6736   19.0677 O   0  0  0  0  0  0  0  0  0  0  0  0
    6.4470    4.5850   22.2321 C   0  0  0  0  0  0  0  0  0  0  0  0
    8.4619    6.9895   22.2968 C   0  0  0  0  0  0  0  0  0  0  0  0
   12.2747    7.5102   20.0420 C   0  0  0  0  0  0  0  0  0  0  0  0
   14.2544    6.2142   19.4191 C   0  0  0  0  0  0  0  0  0  0  0  0
   13.0695    6.3705   20.0375 N   0  0  0  0  0  0  0  0  0  0  0  0
    9.1913    8.0876   21.8361 N   0  0  0  0  0  0  0  0  0  0  0  0
   10.4739    9.4813   20.2889 C   0  0  0  0  0  0  0  0  0  0  0  0
    7.5551    7.1270   23.1200 O   0  0  0  0  0  0  0  0  0  0  0  0
  1 11  4  0
  1 21  4  0
  2  4  1  0
  2  8  1  0
  2 11  1  0
  3 10  4  0
  3 14  4  0
  4  5  1  0
  4 18  2  0
  6 12  1  0
  6 17  4  0
  6 23  4  0
  7  9  1  0
  7 13  4  0
  7 19  4  0
  9 20  1  0
 10 19  4  0
 11 25  4  0
 13 14  4  0
 15 16  4  0
 15 17  4  0
 15 21  4  0
 16 24  1  0
 16 25  4  0
 20 24  1  0
 20 26  2  0
 21 23  4  0
 22 23  1  0
M  END
$$$$

 Created by Python create_sdf_string function

 26 28  0  0  0  0  0  0  0  0999 V2000
   12.4616    8.6700   19.4180 N   0  0  0  0  0  0  0  0  0  0  0  0
   11.8329   10.8148   18.6769 N   0  0  0  0  0  0  0  0  0  0  0  0
    6.1021    2.5564   21.0678 C   0  0  0  0  0  0  0  0  0  0  0  0
   10.9097   11.8051   18.4804 C   0  0  0  0  0  0  0  0  0  0  0  0
   11.2280   12.9135   17.5669 C   0  0  0  0  0  0  0  0  0  0  0  0
   12.3782    5.4231   20.7777 C   0  0  0  0  0  0  0  0  0  0  0  0
    7.7365    4.6508   21.6987 C   0  0  0  0  0  0  0  0  0  0  0  0
   13.0186   11.0102   18.0020 C   0  0  0  0  0  0  0  0  0  0  0  0
    8.6628    5.7088   21.8871 N   0  0  0  0  0  0  0  0  0  0  0  0
    5.6516    3.5258   21.9140 C   0  0  0  0  0  0  0  0  0  0  0  0
   11.5863    9.6815   19.4539 C   0  0  0  0  0  0  0  0  0  0  0  0
   12.9648    4.1543   20.9205 C   0  0  0  0  0  0  0  0  0  0  0  0
    8.2089    3.6265   20.8929 C   0  0  0  0  0  0  0  0  0  0  0  0
    7.3827    2.5724   20.5432 C   0  0  0  0  0  0  0  0  0  0  0  0
   11.1529    7.2750   20.8025 C   0  0  0  0  0  0  0  0  0  0  0  0
   10.2573    8.3215   20.9827 C   0  0  0  0  0  0  0  0  0  0  0  0
   11.1606    5.9378   21.2366 N   0  0  0  0  0  0  0  0  0  0  0  0
    9.8932   11.6736   19.0677 O   0  0  0  0  0  0  0  0  0  0  0  0
    6.4470    4.5850   22.2321 C   0  0  0  0  0  0  0  0  0  0  0  0
    8.4619    6.9895   22.2968 C   0  0  0  0  0  0  0  0  0  0  0  0
   12.2747    7.5102   20.0420 C   0  0  0  0  0  0  0  0  0  0  0  0
   14.2544    6.2142   19.4191 C   0  0  0  0  0  0  0  0  0  0  0  0
   13.0695    6.3705   20.0375 N   0  0  0  0  0  0  0  0  0  0  0  0
    9.1913    8.0876   21.8361 N   0  0  0  0  0  0  0  0  0  0  0  0
   10.4739    9.4813   20.2889 C   0  0  0  0  0  0  0  0  0  0  0  0
    7.5551    7.1270   23.1200 O   0  0  0  0  0  0  0  0  0  0  0  0
  1 11  4  0
  1 21  4  0
  2  4  1  0
  2  8  1  0
  2 11  1  0
  3 10  4  0
  3 14  4  0
  4  5  1  0
  4 18  2  0
  6 12  1  0
  6 17  4  0
  6 23  4  0
  7  9  1  0
  7 13  4  0
  7 19  4  0
  9 20  1  0
 10 19  4  0
 11 25  4  0
 13 14  4  0
 15 16  4  0
 15 17  4  0
 15 21  4  0
 16 24  1  0
 16 25  4  0
 20 24  1  0
 20 26  2  0
 21 23  4  0
 22 23  1  0
M  END
$$$$

 Created by Python create_sdf_string function

 26 28  0  0  0  0  0  0  0  0999 V2000
   12.4616    8.6700   19.4180 N   0  0  0  0  0  0  0  0  0  0  0  0
   11.8329   10.8148   18.6769 N   0  0  0  0  0  0  0  0  0  0  0  0
    6.1021    2.5564   21.0678 C   0  0  0  0  0  0  0  0  0  0  0  0
   10.9097   11.8051   18.4804 C   0  0  0  0  0  0  0  0  0  0  0  0
   11.2280   12.9135   17.5669 C   0  0  0  0  0  0  0  0  0  0  0  0
   12.3782    5.4231   20.7777 C   0  0  0  0  0  0  0  0  0  0  0  0
    7.7365    4.6508   21.6987 C   0  0  0  0  0  0  0  0  0  0  0  0
   13.0186   11.0102   18.0020 C   0  0  0  0  0  0  0  0  0  0  0  0
    8.6628    5.7088   21.8871 N   0  0  0  0  0  0  0  0  0  0  0  0
    5.6516    3.5258   21.9140 C   0  0  0  0  0  0  0  0  0  0  0  0
   11.5863    9.6815   19.4539 C   0  0  0  0  0  0  0  0  0  0  0  0
   12.9648    4.1543   20.9205 C   0  0  0  0  0  0  0  0  0  0  0  0
    8.2089    3.6265   20.8929 C   0  0  0  0  0  0  0  0  0  0  0  0
    7.3827    2.5724   20.5432 C   0  0  0  0  0  0  0  0  0  0  0  0
   11.1529    7.2750   20.8025 C   0  0  0  0  0  0  0  0  0  0  0  0
   10.2573    8.3215   20.9827 C   0  0  0  0  0  0  0  0  0  0  0  0
   11.1606    5.9378   21.2366 N   0  0  0  0  0  0  0  0  0  0  0  0
    9.8932   11.6736   19.0677 O   0  0  0  0  0  0  0  0  0  0  0  0
    6.4470    4.5850   22.2321 C   0  0  0  0  0  0  0  0  0  0  0  0
    8.4619    6.9895   22.2968 C   0  0  0  0  0  0  0  0  0  0  0  0
   12.2747    7.5102   20.0420 C   0  0  0  0  0  0  0  0  0  0  0  0
   14.2544    6.2142   19.4191 C   0  0  0  0  0  0  0  0  0  0  0  0
   13.0695    6.3705   20.0375 N   0  0  0  0  0  0  0  0  0  0  0  0
    9.1913    8.0876   21.8361 N   0  0  0  0  0  0  0  0  0  0  0  0
   10.4739    9.4813   20.2889 C   0  0  0  0  0  0  0  0  0  0  0  0
    7.5551    7.1270   23.1200 O   0  0  0  0  0  0  0  0  0  0  0  0
  1 11  4  0
  1 21  4  0
  2  4  1  0
  2  8  1  0
  2 11  1  0
  3 10  4  0
  3 14  4  0
  4  5  1  0
  4 18  2  0
  6 12  1  0
  6 17  4  0
  6 23  4  0
  7  9  1  0
  7 13  4  0
  7 19  4  0
  9 20  1  0
 10 19  4  0
 11 25  4  0
 13 14  4  0
 15 16  4  0
 15 17  4  0
 15 21  4  0
 16 24  1  0
 16 25  4  0
 20 24  1  0
 20 26  2  0
 21 23  4  0
 22 23  1  0
M  END
$$$$

 Created by Python create_sdf_string function

 26 28  0  0  0  0  0  0  0  0999 V2000
   12.4616    8.6700   19.4180 N   0  0  0  0  0  0  0  0  0  0  0  0
   11.8329   10.8148   18.6769 N   0  0  0  0  0  0  0  0  0  0  0  0
    6.1021    2.5564   21.0678 C   0  0  0  0  0  0  0  0  0  0  0  0
   10.9097   11.8051   18.4804 C   0  0  0  0  0  0  0  0  0  0  0  0
   11.2280   12.9135   17.5669 C   0  0  0  0  0  0  0  0  0  0  0  0
   12.3782    5.4231   20.7777 C   0  0  0  0  0  0  0  0  0  0  0  0
    7.7365    4.6508   21.6987 C   0  0  0  0  0  0  0  0  0  0  0  0
   13.0186   11.0102   18.0020 C   0  0  0  0  0  0  0  0  0  0  0  0
    8.6628    5.7088   21.8871 N   0  0  0  0  0  0  0  0  0  0  0  0
    5.6516    3.5258   21.9140 C   0  0  0  0  0  0  0  0  0  0  0  0
   11.5863    9.6815   19.4539 C   0  0  0  0  0  0  0  0  0  0  0  0
   12.9648    4.1543   20.9205 C   0  0  0  0  0  0  0  0  0  0  0  0
    8.2089    3.6265   20.8929 C   0  0  0  0  0  0  0  0  0  0  0  0
    7.3827    2.5724   20.5432 C   0  0  0  0  0  0  0  0  0  0  0  0
   11.1529    7.2750   20.8025 C   0  0  0  0  0  0  0  0  0  0  0  0
   10.2573    8.3215   20.9827 C   0  0  0  0  0  0  0  0  0  0  0  0
   11.1606    5.9378   21.2366 N   0  0  0  0  0  0  0  0  0  0  0  0
    9.8932   11.6736   19.0677 O   0  0  0  0  0  0  0  0  0  0  0  0
    6.4470    4.5850   22.2321 C   0  0  0  0  0  0  0  0  0  0  0  0
    8.4619    6.9895   22.2968 C   0  0  0  0  0  0  0  0  0  0  0  0
   12.2747    7.5102   20.0420 C   0  0  0  0  0  0  0  0  0  0  0  0
   14.2544    6.2142   19.4191 C   0  0  0  0  0  0  0  0  0  0  0  0
   13.0695    6.3705   20.0375 N   0  0  0  0  0  0  0  0  0  0  0  0
    9.1913    8.0876   21.8361 N   0  0  0  0  0  0  0  0  0  0  0  0
   10.4739    9.4813   20.2889 C   0  0  0  0  0  0  0  0  0  0  0  0
    7.5551    7.1270   23.1200 O   0  0  0  0  0  0  0  0  0  0  0  0
  1 11  4  0
  1 21  4  0
  2  4  1  0
  2  8  1  0
  2 11  1  0
  3 10  4  0
  3 14  4  0
  4  5  1  0
  4 18  2  0
  6 12  1  0
  6 17  4  0
  6 23  4  0
  7  9  1  0
  7 13  4  0
  7 19  4  0
  9 20  1  0
 10 19  4  0
 11 25  4  0
 13 14  4  0
 15 16  4  0
 15 17  4  0
 15 21  4  0
 16 24  1  0
 16 25  4  0
 20 24  1  0
 20 26  2  0
 21 23  4  0
 22 23  1  0
M  END
$$$$

 Created by Python create_sdf_string function

 26 28  0  0  0  0  0  0  0  0999 V2000
   12.4616    8.6700   19.4180 N   0  0  0  0  0  0  0  0  0  0  0  0
   11.8329   10.8148   18.6769 N   0  0  0  0  0  0  0  0  0  0  0  0
    6.1021    2.5564   21.0678 C   0  0  0  0  0  0  0  0  0  0  0  0
   10.9097   11.8051   18.4804 C   0  0  0  0  0  0  0  0  0  0  0  0
   11.2280   12.9135   17.5669 C   0  0  0  0  0  0  0  0  0  0  0  0
   12.3782    5.4231   20.7777 C   0  0  0  0  0  0  0  0  0  0  0  0
    7.7365    4.6508   21.6987 C   0  0  0  0  0  0  0  0  0  0  0  0
   13.0186   11.0102   18.0020 C   0  0  0  0  0  0  0  0  0  0  0  0
    8.6628    5.7088   21.8871 N   0  0  0  0  0  0  0  0  0  0  0  0
    5.6516    3.5258   21.9140 C   0  0  0  0  0  0  0  0  0  0  0  0
   11.5863    9.6815   19.4539 C   0  0  0  0  0  0  0  0  0  0  0  0
   12.9648    4.1543   20.9205 C   0  0  0  0  0  0  0  0  0  0  0  0
    8.2089    3.6265   20.8929 C   0  0  0  0  0  0  0  0  0  0  0  0
    7.3827    2.5724   20.5432 C   0  0  0  0  0  0  0  0  0  0  0  0
   11.1529    7.2750   20.8025 C   0  0  0  0  0  0  0  0  0  0  0  0
   10.2573    8.3215   20.9827 C   0  0  0  0  0  0  0  0  0  0  0  0
   11.1606    5.9378   21.2366 N   0  0  0  0  0  0  0  0  0  0  0  0
    9.8932   11.6736   19.0677 O   0  0  0  0  0  0  0  0  0  0  0  0
    6.4470    4.5850   22.2321 C   0  0  0  0  0  0  0  0  0  0  0  0
    8.4619    6.9895   22.2968 C   0  0  0  0  0  0  0  0  0  0  0  0
   12.2747    7.5102   20.0420 C   0  0  0  0  0  0  0  0  0  0  0  0
   14.2544    6.2142   19.4191 C   0  0  0  0  0  0  0  0  0  0  0  0
   13.0695    6.3705   20.0375 N   0  0  0  0  0  0  0  0  0  0  0  0
    9.1913    8.0876   21.8361 N   0  0  0  0  0  0  0  0  0  0  0  0
   10.4739    9.4813   20.2889 C   0  0  0  0  0  0  0  0  0  0  0  0
    7.5551    7.1270   23.1200 O   0  0  0  0  0  0  0  0  0  0  0  0
  1 11  4  0
  1 21  4  0
  2  4  1  0
  2  8  1  0
  2 11  1  0
  3 10  4  0
  3 14  4  0
  4  5  1  0
  4 18  2  0
  6 12  1  0
  6 17  4  0
  6 23  4  0
  7  9  1  0
  7 13  4  0
  7 19  4  0
  9 20  1  0
 10 19  4  0
 11 25  4  0
 13 14  4  0
 15 16  4  0
 15 17  4  0
 15 21  4  0
 16 24  1  0
 16 25  4  0
 20 24  1  0
 20 26  2  0
 21 23  4  0
 22 23  1  0
M  END
$$$$

 Created by Python create_sdf_string function

 26 28  0  0  0  0  0  0  0  0999 V2000
   12.4616    8.6700   19.4180 N   0  0  0  0  0  0  0  0  0  0  0  0
   11.8329   10.8148   18.6769 N   0  0  0  0  0  0  0  0  0  0  0  0
    6.1021    2.5564   21.0678 C   0  0  0  0  0  0  0  0  0  0  0  0
   10.9097   11.8051   18.4804 C   0  0  0  0  0  0  0  0  0  0  0  0
   11.2280   12.9135   17.5669 C   0  0  0  0  0  0  0  0  0  0  0  0
   12.3782    5.4231   20.7777 C   0  0  0  0  0  0  0  0  0  0  0  0
    7.7365    4.6508   21.6987 C   0  0  0  0  0  0  0  0  0  0  0  0
   13.0186   11.0102   18.0020 C   0  0  0  0  0  0  0  0  0  0  0  0
    8.6628    5.7088   21.8871 N   0  0  0  0  0  0  0  0  0  0  0  0
    5.6516    3.5258   21.9140 C   0  0  0  0  0  0  0  0  0  0  0  0
   11.5863    9.6815   19.4539 C   0  0  0  0  0  0  0  0  0  0  0  0
   12.9648    4.1543   20.9205 C   0  0  0  0  0  0  0  0  0  0  0  0
    8.2089    3.6265   20.8929 C   0  0  0  0  0  0  0  0  0  0  0  0
    7.3827    2.5724   20.5432 C   0  0  0  0  0  0  0  0  0  0  0  0
   11.1529    7.2750   20.8025 C   0  0  0  0  0  0  0  0  0  0  0  0
   10.2573    8.3215   20.9827 C   0  0  0  0  0  0  0  0  0  0  0  0
   11.1606    5.9378   21.2366 N   0  0  0  0  0  0  0  0  0  0  0  0
    9.8932   11.6736   19.0677 O   0  0  0  0  0  0  0  0  0  0  0  0
    6.4470    4.5850   22.2321 C   0  0  0  0  0  0  0  0  0  0  0  0
    8.4619    6.9895   22.2968 C   0  0  0  0  0  0  0  0  0  0  0  0
   12.2747    7.5102   20.0420 C   0  0  0  0  0  0  0  0  0  0  0  0
   14.2544    6.2142   19.4191 C   0  0  0  0  0  0  0  0  0  0  0  0
   13.0695    6.3705   20.0375 N   0  0  0  0  0  0  0  0  0  0  0  0
    9.1913    8.0876   21.8361 N   0  0  0  0  0  0  0  0  0  0  0  0
   10.4739    9.4813   20.2889 C   0  0  0  0  0  0  0  0  0  0  0  0
    7.5551    7.1270   23.1200 O   0  0  0  0  0  0  0  0  0  0  0  0
  1 11  4  0
  1 21  4  0
  2  4  1  0
  2  8  1  0
  2 11  1  0
  3 10  4  0
  3 14  4  0
  4  5  1  0
  4 18  2  0
  6 12  1  0
  6 17  4  0
  6 23  4  0
  7  9  1  0
  7 13  4  0
  7 19  4  0
  9 20  1  0
 10 19  4  0
 11 25  4  0
 13 14  4  0
 15 16  4  0
 15 17  4  0
 15 21  4  0
 16 24  1  0
 16 25  4  0
 20 24  1  0
 20 26  2  0
 21 23  4  0
 22 23  1  0
M  END
$$$$

 Created by Python create_sdf_string function

 26 28  0  0  0  0  0  0  0  0999 V2000
   12.4616    8.6700   19.4180 N   0  0  0  0  0  0  0  0  0  0  0  0
   11.8329   10.8148   18.6769 N   0  0  0  0  0  0  0  0  0  0  0  0
    6.1021    2.5564   21.0678 C   0  0  0  0  0  0  0  0  0  0  0  0
   10.9097   11.8051   18.4804 C   0  0  0  0  0  0  0  0  0  0  0  0
   11.2280   12.9135   17.5669 C   0  0  0  0  0  0  0  0  0  0  0  0
   12.3782    5.4231   20.7777 C   0  0  0  0  0  0  0  0  0  0  0  0
    7.7365    4.6508   21.6987 C   0  0  0  0  0  0  0  0  0  0  0  0
   13.0186   11.0102   18.0020 C   0  0  0  0  0  0  0  0  0  0  0  0
    8.6628    5.7088   21.8871 N   0  0  0  0  0  0  0  0  0  0  0  0
    5.6516    3.5258   21.9140 C   0  0  0  0  0  0  0  0  0  0  0  0
   11.5863    9.6815   19.4539 C   0  0  0  0  0  0  0  0  0  0  0  0
   12.9648    4.1543   20.9205 C   0  0  0  0  0  0  0  0  0  0  0  0
    8.2089    3.6265   20.8929 C   0  0  0  0  0  0  0  0  0  0  0  0
    7.3827    2.5724   20.5432 C   0  0  0  0  0  0  0  0  0  0  0  0
   11.1529    7.2750   20.8025 C   0  0  0  0  0  0  0  0  0  0  0  0
   10.2573    8.3215   20.9827 C   0  0  0  0  0  0  0  0  0  0  0  0
   11.1606    5.9378   21.2366 N   0  0  0  0  0  0  0  0  0  0  0  0
    9.8932   11.6736   19.0677 O   0  0  0  0  0  0  0  0  0  0  0  0
    6.4470    4.5850   22.2321 C   0  0  0  0  0  0  0  0  0  0  0  0
    8.4619    6.9895   22.2968 C   0  0  0  0  0  0  0  0  0  0  0  0
   12.2747    7.5102   20.0420 C   0  0  0  0  0  0  0  0  0  0  0  0
   14.2544    6.2142   19.4191 C   0  0  0  0  0  0  0  0  0  0  0  0
   13.0695    6.3705   20.0375 N   0  0  0  0  0  0  0  0  0  0  0  0
    9.1913    8.0876   21.8361 N   0  0  0  0  0  0  0  0  0  0  0  0
   10.4739    9.4813   20.2889 C   0  0  0  0  0  0  0  0  0  0  0  0
    7.5551    7.1270   23.1200 O   0  0  0  0  0  0  0  0  0  0  0  0
  1 11  4  0
  1 21  4  0
  2  4  1  0
  2  8  1  0
  2 11  1  0
  3 10  4  0
  3 14  4  0
  4  5  1  0
  4 18  2  0
  6 12  1  0
  6 17  4  0
  6 23  4  0
  7  9  1  0
  7 13  4  0
  7 19  4  0
  9 20  1  0
 10 19  4  0
 11 25  4  0
 13 14  4  0
 15 16  4  0
 15 17  4  0
 15 21  4  0
 16 24  1  0
 16 25  4  0
 20 24  1  0
 20 26  2  0
 21 23  4  0
 22 23  1  0
M  END
$$$$

 Created by Python create_sdf_string function

 26 28  0  0  0  0  0  0  0  0999 V2000
   12.4616    8.6700   19.4180 N   0  0  0  0  0  0  0  0  0  0  0  0
   11.8329   10.8148   18.6769 N   0  0  0  0  0  0  0  0  0  0  0  0
    6.1021    2.5564   21.0678 C   0  0  0  0  0  0  0  0  0  0  0  0
   10.9097   11.8051   18.4804 C   0  0  0  0  0  0  0  0  0  0  0  0
   11.2280   12.9135   17.5669 C   0  0  0  0  0  0  0  0  0  0  0  0
   12.3782    5.4231   20.7777 C   0  0  0  0  0  0  0  0  0  0  0  0
    7.7365    4.6508   21.6987 C   0  0  0  0  0  0  0  0  0  0  0  0
   13.0186   11.0102   18.0020 C   0  0  0  0  0  0  0  0  0  0  0  0
    8.6628    5.7088   21.8871 N   0  0  0  0  0  0  0  0  0  0  0  0
    5.6516    3.5258   21.9140 C   0  0  0  0  0  0  0  0  0  0  0  0
   11.5863    9.6815   19.4539 C   0  0  0  0  0  0  0  0  0  0  0  0
   12.9648    4.1543   20.9205 C   0  0  0  0  0  0  0  0  0  0  0  0
    8.2089    3.6265   20.8929 C   0  0  0  0  0  0  0  0  0  0  0  0
    7.3827    2.5724   20.5432 C   0  0  0  0  0  0  0  0  0  0  0  0
   11.1529    7.2750   20.8025 C   0  0  0  0  0  0  0  0  0  0  0  0
   10.2573    8.3215   20.9827 C   0  0  0  0  0  0  0  0  0  0  0  0
   11.1606    5.9378   21.2366 N   0  0  0  0  0  0  0  0  0  0  0  0
    9.8932   11.6736   19.0677 O   0  0  0  0  0  0  0  0  0  0  0  0
    6.4470    4.5850   22.2321 C   0  0  0  0  0  0  0  0  0  0  0  0
    8.4619    6.9895   22.2968 C   0  0  0  0  0  0  0  0  0  0  0  0
   12.2747    7.5102   20.0420 C   0  0  0  0  0  0  0  0  0  0  0  0
   14.2544    6.2142   19.4191 C   0  0  0  0  0  0  0  0  0  0  0  0
   13.0695    6.3705   20.0375 N   0  0  0  0  0  0  0  0  0  0  0  0
    9.1913    8.0876   21.8361 N   0  0  0  0  0  0  0  0  0  0  0  0
   10.4739    9.4813   20.2889 C   0  0  0  0  0  0  0  0  0  0  0  0
    7.5551    7.1270   23.1200 O   0  0  0  0  0  0  0  0  0  0  0  0
  1 11  4  0
  1 21  4  0
  2  4  1  0
  2  8  1  0
  2 11  1  0
  3 10  4  0
  3 14  4  0
  4  5  1  0
  4 18  2  0
  6 12  1  0
  6 17  4  0
  6 23  4  0
  7  9  1  0
  7 13  4  0
  7 19  4  0
  9 20  1  0
 10 19  4  0
 11 25  4  0
 13 14  4  0
 15 16  4  0
 15 17  4  0
 15 21  4  0
 16 24  1  0
 16 25  4  0
 20 24  1  0
 20 26  2  0
 21 23  4  0
 22 23  1  0
M  END
$$$$

 Created by Python create_sdf_string function

 26 28  0  0  0  0  0  0  0  0999 V2000
   12.4616    8.6700   19.4180 N   0  0  0  0  0  0  0  0  0  0  0  0
   11.8329   10.8148   18.6769 N   0  0  0  0  0  0  0  0  0  0  0  0
    6.1021    2.5564   21.0678 C   0  0  0  0  0  0  0  0  0  0  0  0
   10.9097   11.8051   18.4804 C   0  0  0  0  0  0  0  0  0  0  0  0
   11.2280   12.9135   17.5669 C   0  0  0  0  0  0  0  0  0  0  0  0
   12.3782    5.4231   20.7777 C   0  0  0  0  0  0  0  0  0  0  0  0
    7.7365    4.6508   21.6987 C   0  0  0  0  0  0  0  0  0  0  0  0
   13.0186   11.0102   18.0020 C   0  0  0  0  0  0  0  0  0  0  0  0
    8.6628    5.7088   21.8871 N   0  0  0  0  0  0  0  0  0  0  0  0
    5.6516    3.5258   21.9140 C   0  0  0  0  0  0  0  0  0  0  0  0
   11.5863    9.6815   19.4539 C   0  0  0  0  0  0  0  0  0  0  0  0
   12.9648    4.1543   20.9205 C   0  0  0  0  0  0  0  0  0  0  0  0
    8.2089    3.6265   20.8929 C   0  0  0  0  0  0  0  0  0  0  0  0
    7.3827    2.5724   20.5432 C   0  0  0  0  0  0  0  0  0  0  0  0
   11.1529    7.2750   20.8025 C   0  0  0  0  0  0  0  0  0  0  0  0
   10.2573    8.3215   20.9827 C   0  0  0  0  0  0  0  0  0  0  0  0
   11.1606    5.9378   21.2366 N   0  0  0  0  0  0  0  0  0  0  0  0
    9.8932   11.6736   19.0677 O   0  0  0  0  0  0  0  0  0  0  0  0
    6.4470    4.5850   22.2321 C   0  0  0  0  0  0  0  0  0  0  0  0
    8.4619    6.9895   22.2968 C   0  0  0  0  0  0  0  0  0  0  0  0
   12.2747    7.5102   20.0420 C   0  0  0  0  0  0  0  0  0  0  0  0
   14.2544    6.2142   19.4191 C   0  0  0  0  0  0  0  0  0  0  0  0
   13.0695    6.3705   20.0375 N   0  0  0  0  0  0  0  0  0  0  0  0
    9.1913    8.0876   21.8361 N   0  0  0  0  0  0  0  0  0  0  0  0
   10.4739    9.4813   20.2889 C   0  0  0  0  0  0  0  0  0  0  0  0
    7.5551    7.1270   23.1200 O   0  0  0  0  0  0  0  0  0  0  0  0
  1 11  4  0
  1 21  4  0
  2  4  1  0
  2  8  1  0
  2 11  1  0
  3 10  4  0
  3 14  4  0
  4  5  1  0
  4 18  2  0
  6 12  1  0
  6 17  4  0
  6 23  4  0
  7  9  1  0
  7 13  4  0
  7 19  4  0
  9 20  1  0
 10 19  4  0
 11 25  4  0
 13 14  4  0
 15 16  4  0
 15 17  4  0
 15 21  4  0
 16 24  1  0
 16 25  4  0
 20 24  1  0
 20 26  2  0
 21 23  4  0
 22 23  1  0
M  END
$$$$

 Created by Python create_sdf_string function

 26 28  0  0  0  0  0  0  0  0999 V2000
   12.4616    8.6700   19.4180 N   0  0  0  0  0  0  0  0  0  0  0  0
   11.8329   10.8148   18.6769 N   0  0  0  0  0  0  0  0  0  0  0  0
    6.1021    2.5564   21.0678 C   0  0  0  0  0  0  0  0  0  0  0  0
   10.9097   11.8051   18.4804 C   0  0  0  0  0  0  0  0  0  0  0  0
   11.2280   12.9135   17.5669 C   0  0  0  0  0  0  0  0  0  0  0  0
   12.3782    5.4231   20.7777 C   0  0  0  0  0  0  0  0  0  0  0  0
    7.7365    4.6508   21.6987 C   0  0  0  0  0  0  0  0  0  0  0  0
   13.0186   11.0102   18.0020 C   0  0  0  0  0  0  0  0  0  0  0  0
    8.6628    5.7088   21.8871 N   0  0  0  0  0  0  0  0  0  0  0  0
    5.6516    3.5258   21.9140 C   0  0  0  0  0  0  0  0  0  0  0  0
   11.5863    9.6815   19.4539 C   0  0  0  0  0  0  0  0  0  0  0  0
   12.9648    4.1543   20.9205 C   0  0  0  0  0  0  0  0  0  0  0  0
    8.2089    3.6265   20.8929 C   0  0  0  0  0  0  0  0  0  0  0  0
    7.3827    2.5724   20.5432 C   0  0  0  0  0  0  0  0  0  0  0  0
   11.1529    7.2750   20.8025 C   0  0  0  0  0  0  0  0  0  0  0  0
   10.2573    8.3215   20.9827 C   0  0  0  0  0  0  0  0  0  0  0  0
   11.1606    5.9378   21.2366 N   0  0  0  0  0  0  0  0  0  0  0  0
    9.8932   11.6736   19.0677 O   0  0  0  0  0  0  0  0  0  0  0  0
    6.4470    4.5850   22.2321 C   0  0  0  0  0  0  0  0  0  0  0  0
    8.4619    6.9895   22.2968 C   0  0  0  0  0  0  0  0  0  0  0  0
   12.2747    7.5102   20.0420 C   0  0  0  0  0  0  0  0  0  0  0  0
   14.2544    6.2142   19.4191 C   0  0  0  0  0  0  0  0  0  0  0  0
   13.0695    6.3705   20.0375 N   0  0  0  0  0  0  0  0  0  0  0  0
    9.1913    8.0876   21.8361 N   0  0  0  0  0  0  0  0  0  0  0  0
   10.4739    9.4813   20.2889 C   0  0  0  0  0  0  0  0  0  0  0  0
    7.5551    7.1270   23.1200 O   0  0  0  0  0  0  0  0  0  0  0  0
  1 11  4  0
  1 21  4  0
  2  4  1  0
  2  8  1  0
  2 11  1  0
  3 10  4  0
  3 14  4  0
  4  5  1  0
  4 18  2  0
  6 12  1  0
  6 17  4  0
  6 23  4  0
  7  9  1  0
  7 13  4  0
  7 19  4  0
  9 20  1  0
 10 19  4  0
 11 25  4  0
 13 14  4  0
 15 16  4  0
 15 17  4  0
 15 21  4  0
 16 24  1  0
 16 25  4  0
 20 24  1  0
 20 26  2  0
 21 23  4  0
 22 23  1  0
M  END
$$$$

 Created by Python create_sdf_string function

 26 28  0  0  0  0  0  0  0  0999 V2000
   12.4616    8.6700   19.4180 N   0  0  0  0  0  0  0  0  0  0  0  0
   11.8329   10.8148   18.6769 N   0  0  0  0  0  0  0  0  0  0  0  0
    6.1021    2.5564   21.0678 C   0  0  0  0  0  0  0  0  0  0  0  0
   10.9097   11.8051   18.4804 C   0  0  0  0  0  0  0  0  0  0  0  0
   11.2280   12.9135   17.5669 C   0  0  0  0  0  0  0  0  0  0  0  0
   12.3782    5.4231   20.7777 C   0  0  0  0  0  0  0  0  0  0  0  0
    7.7365    4.6508   21.6987 C   0  0  0  0  0  0  0  0  0  0  0  0
   13.0186   11.0102   18.0020 C   0  0  0  0  0  0  0  0  0  0  0  0
    8.6628    5.7088   21.8871 N   0  0  0  0  0  0  0  0  0  0  0  0
    5.6516    3.5258   21.9140 C   0  0  0  0  0  0  0  0  0  0  0  0
   11.5863    9.6815   19.4539 C   0  0  0  0  0  0  0  0  0  0  0  0
   12.9648    4.1543   20.9205 C   0  0  0  0  0  0  0  0  0  0  0  0
    8.2089    3.6265   20.8929 C   0  0  0  0  0  0  0  0  0  0  0  0
    7.3827    2.5724   20.5432 C   0  0  0  0  0  0  0  0  0  0  0  0
   11.1529    7.2750   20.8025 C   0  0  0  0  0  0  0  0  0  0  0  0
   10.2573    8.3215   20.9827 C   0  0  0  0  0  0  0  0  0  0  0  0
   11.1606    5.9378   21.2366 N   0  0  0  0  0  0  0  0  0  0  0  0
    9.8932   11.6736   19.0677 O   0  0  0  0  0  0  0  0  0  0  0  0
    6.4470    4.5850   22.2321 C   0  0  0  0  0  0  0  0  0  0  0  0
    8.4619    6.9895   22.2968 C   0  0  0  0  0  0  0  0  0  0  0  0
   12.2747    7.5102   20.0420 C   0  0  0  0  0  0  0  0  0  0  0  0
   14.2544    6.2142   19.4191 C   0  0  0  0  0  0  0  0  0  0  0  0
   13.0695    6.3705   20.0375 N   0  0  0  0  0  0  0  0  0  0  0  0
    9.1913    8.0876   21.8361 N   0  0  0  0  0  0  0  0  0  0  0  0
   10.4739    9.4813   20.2889 C   0  0  0  0  0  0  0  0  0  0  0  0
    7.5551    7.1270   23.1200 O   0  0  0  0  0  0  0  0  0  0  0  0
  1 11  4  0
  1 21  4  0
  2  4  1  0
  2  8  1  0
  2 11  1  0
  3 10  4  0
  3 14  4  0
  4  5  1  0
  4 18  2  0
  6 12  1  0
  6 17  4  0
  6 23  4  0
  7  9  1  0
  7 13  4  0
  7 19  4  0
  9 20  1  0
 10 19  4  0
 11 25  4  0
 13 14  4  0
 15 16  4  0
 15 17  4  0
 15 21  4  0
 16 24  1  0
 16 25  4  0
 20 24  1  0
 20 26  2  0
 21 23  4  0
 22 23  1  0
M  END
$$$$

 Created by Python create_sdf_string function

 26 28  0  0  0  0  0  0  0  0999 V2000
   12.4616    8.6700   19.4180 N   0  0  0  0  0  0  0  0  0  0  0  0
   11.8329   10.8148   18.6769 N   0  0  0  0  0  0  0  0  0  0  0  0
    6.1021    2.5564   21.0678 C   0  0  0  0  0  0  0  0  0  0  0  0
   10.9097   11.8051   18.4804 C   0  0  0  0  0  0  0  0  0  0  0  0
   11.2280   12.9135   17.5669 C   0  0  0  0  0  0  0  0  0  0  0  0
   12.3782    5.4231   20.7777 C   0  0  0  0  0  0  0  0  0  0  0  0
    7.7365    4.6508   21.6987 C   0  0  0  0  0  0  0  0  0  0  0  0
   13.0186   11.0102   18.0020 C   0  0  0  0  0  0  0  0  0  0  0  0
    8.6628    5.7088   21.8871 N   0  0  0  0  0  0  0  0  0  0  0  0
    5.6516    3.5258   21.9140 C   0  0  0  0  0  0  0  0  0  0  0  0
   11.5863    9.6815   19.4539 C   0  0  0  0  0  0  0  0  0  0  0  0
   12.9648    4.1543   20.9205 C   0  0  0  0  0  0  0  0  0  0  0  0
    8.2089    3.6265   20.8929 C   0  0  0  0  0  0  0  0  0  0  0  0
    7.3827    2.5724   20.5432 C   0  0  0  0  0  0  0  0  0  0  0  0
   11.1529    7.2750   20.8025 C   0  0  0  0  0  0  0  0  0  0  0  0
   10.2573    8.3215   20.9827 C   0  0  0  0  0  0  0  0  0  0  0  0
   11.1606    5.9378   21.2366 N   0  0  0  0  0  0  0  0  0  0  0  0
    9.8932   11.6736   19.0677 O   0  0  0  0  0  0  0  0  0  0  0  0
    6.4470    4.5850   22.2321 C   0  0  0  0  0  0  0  0  0  0  0  0
    8.4619    6.9895   22.2968 C   0  0  0  0  0  0  0  0  0  0  0  0
   12.2747    7.5102   20.0420 C   0  0  0  0  0  0  0  0  0  0  0  0
   14.2544    6.2142   19.4191 C   0  0  0  0  0  0  0  0  0  0  0  0
   13.0695    6.3705   20.0375 N   0  0  0  0  0  0  0  0  0  0  0  0
    9.1913    8.0876   21.8361 N   0  0  0  0  0  0  0  0  0  0  0  0
   10.4739    9.4813   20.2889 C   0  0  0  0  0  0  0  0  0  0  0  0
    7.5551    7.1270   23.1200 O   0  0  0  0  0  0  0  0  0  0  0  0
  1 11  4  0
  1 21  4  0
  2  4  1  0
  2  8  1  0
  2 11  1  0
  3 10  4  0
  3 14  4  0
  4  5  1  0
  4 18  2  0
  6 12  1  0
  6 17  4  0
  6 23  4  0
  7  9  1  0
  7 13  4  0
  7 19  4  0
  9 20  1  0
 10 19  4  0
 11 25  4  0
 13 14  4  0
 15 16  4  0
 15 17  4  0
 15 21  4  0
 16 24  1  0
 16 25  4  0
 20 24  1  0
 20 26  2  0
 21 23  4  0
 22 23  1  0
M  END
$$$$

 Created by Python create_sdf_string function

 26 28  0  0  0  0  0  0  0  0999 V2000
   12.4616    8.6700   19.4180 N   0  0  0  0  0  0  0  0  0  0  0  0
   11.8329   10.8148   18.6769 N   0  0  0  0  0  0  0  0  0  0  0  0
    6.1021    2.5564   21.0678 C   0  0  0  0  0  0  0  0  0  0  0  0
   10.9097   11.8051   18.4804 C   0  0  0  0  0  0  0  0  0  0  0  0
   11.2280   12.9135   17.5669 C   0  0  0  0  0  0  0  0  0  0  0  0
   12.3782    5.4231   20.7777 C   0  0  0  0  0  0  0  0  0  0  0  0
    7.7365    4.6508   21.6987 C   0  0  0  0  0  0  0  0  0  0  0  0
   13.0186   11.0102   18.0020 C   0  0  0  0  0  0  0  0  0  0  0  0
    8.6628    5.7088   21.8871 N   0  0  0  0  0  0  0  0  0  0  0  0
    5.6516    3.5258   21.9140 C   0  0  0  0  0  0  0  0  0  0  0  0
   11.5863    9.6815   19.4539 C   0  0  0  0  0  0  0  0  0  0  0  0
   12.9648    4.1543   20.9205 C   0  0  0  0  0  0  0  0  0  0  0  0
    8.2089    3.6265   20.8929 C   0  0  0  0  0  0  0  0  0  0  0  0
    7.3827    2.5724   20.5432 C   0  0  0  0  0  0  0  0  0  0  0  0
   11.1529    7.2750   20.8025 C   0  0  0  0  0  0  0  0  0  0  0  0
   10.2573    8.3215   20.9827 C   0  0  0  0  0  0  0  0  0  0  0  0
   11.1606    5.9378   21.2366 N   0  0  0  0  0  0  0  0  0  0  0  0
    9.8932   11.6736   19.0677 O   0  0  0  0  0  0  0  0  0  0  0  0
    6.4470    4.5850   22.2321 C   0  0  0  0  0  0  0  0  0  0  0  0
    8.4619    6.9895   22.2968 C   0  0  0  0  0  0  0  0  0  0  0  0
   12.2747    7.5102   20.0420 C   0  0  0  0  0  0  0  0  0  0  0  0
   14.2544    6.2142   19.4191 C   0  0  0  0  0  0  0  0  0  0  0  0
   13.0695    6.3705   20.0375 N   0  0  0  0  0  0  0  0  0  0  0  0
    9.1913    8.0876   21.8361 N   0  0  0  0  0  0  0  0  0  0  0  0
   10.4739    9.4813   20.2889 C   0  0  0  0  0  0  0  0  0  0  0  0
    7.5551    7.1270   23.1200 O   0  0  0  0  0  0  0  0  0  0  0  0
  1 11  4  0
  1 21  4  0
  2  4  1  0
  2  8  1  0
  2 11  1  0
  3 10  4  0
  3 14  4  0
  4  5  1  0
  4 18  2  0
  6 12  1  0
  6 17  4  0
  6 23  4  0
  7  9  1  0
  7 13  4  0
  7 19  4  0
  9 20  1  0
 10 19  4  0
 11 25  4  0
 13 14  4  0
 15 16  4  0
 15 17  4  0
 15 21  4  0
 16 24  1  0
 16 25  4  0
 20 24  1  0
 20 26  2  0
 21 23  4  0
 22 23  1  0
M  END
$$$$

 Created by Python create_sdf_string function

 26 28  0  0  0  0  0  0  0  0999 V2000
   12.4616    8.6700   19.4180 N   0  0  0  0  0  0  0  0  0  0  0  0
   11.8329   10.8148   18.6769 N   0  0  0  0  0  0  0  0  0  0  0  0
    6.1021    2.5564   21.0678 C   0  0  0  0  0  0  0  0  0  0  0  0
   10.9097   11.8051   18.4804 C   0  0  0  0  0  0  0  0  0  0  0  0
   11.2280   12.9135   17.5669 C   0  0  0  0  0  0  0  0  0  0  0  0
   12.3782    5.4231   20.7777 C   0  0  0  0  0  0  0  0  0  0  0  0
    7.7365    4.6508   21.6987 C   0  0  0  0  0  0  0  0  0  0  0  0
   13.0186   11.0102   18.0020 C   0  0  0  0  0  0  0  0  0  0  0  0
    8.6628    5.7088   21.8871 N   0  0  0  0  0  0  0  0  0  0  0  0
    5.6516    3.5258   21.9140 C   0  0  0  0  0  0  0  0  0  0  0  0
   11.5863    9.6815   19.4539 C   0  0  0  0  0  0  0  0  0  0  0  0
   12.9648    4.1543   20.9205 C   0  0  0  0  0  0  0  0  0  0  0  0
    8.2089    3.6265   20.8929 C   0  0  0  0  0  0  0  0  0  0  0  0
    7.3827    2.5724   20.5432 C   0  0  0  0  0  0  0  0  0  0  0  0
   11.1529    7.2750   20.8025 C   0  0  0  0  0  0  0  0  0  0  0  0
   10.2573    8.3215   20.9827 C   0  0  0  0  0  0  0  0  0  0  0  0
   11.1606    5.9378   21.2366 N   0  0  0  0  0  0  0  0  0  0  0  0
    9.8932   11.6736   19.0677 O   0  0  0  0  0  0  0  0  0  0  0  0
    6.4470    4.5850   22.2321 C   0  0  0  0  0  0  0  0  0  0  0  0
    8.4619    6.9895   22.2968 C   0  0  0  0  0  0  0  0  0  0  0  0
   12.2747    7.5102   20.0420 C   0  0  0  0  0  0  0  0  0  0  0  0
   14.2544    6.2142   19.4191 C   0  0  0  0  0  0  0  0  0  0  0  0
   13.0695    6.3705   20.0375 N   0  0  0  0  0  0  0  0  0  0  0  0
    9.1913    8.0876   21.8361 N   0  0  0  0  0  0  0  0  0  0  0  0
   10.4739    9.4813   20.2889 C   0  0  0  0  0  0  0  0  0  0  0  0
    7.5551    7.1270   23.1200 O   0  0  0  0  0  0  0  0  0  0  0  0
  1 11  4  0
  1 21  4  0
  2  4  1  0
  2  8  1  0
  2 11  1  0
  3 10  4  0
  3 14  4  0
  4  5  1  0
  4 18  2  0
  6 12  1  0
  6 17  4  0
  6 23  4  0
  7  9  1  0
  7 13  4  0
  7 19  4  0
  9 20  1  0
 10 19  4  0
 11 25  4  0
 13 14  4  0
 15 16  4  0
 15 17  4  0
 15 21  4  0
 16 24  1  0
 16 25  4  0
 20 24  1  0
 20 26  2  0
 21 23  4  0
 22 23  1  0
M  END
$$$$

 Created by Python create_sdf_string function

 26 28  0  0  0  0  0  0  0  0999 V2000
   12.4616    8.6700   19.4180 N   0  0  0  0  0  0  0  0  0  0  0  0
   11.8329   10.8148   18.6769 N   0  0  0  0  0  0  0  0  0  0  0  0
    6.1021    2.5564   21.0678 C   0  0  0  0  0  0  0  0  0  0  0  0
   10.9097   11.8051   18.4804 C   0  0  0  0  0  0  0  0  0  0  0  0
   11.2280   12.9135   17.5669 C   0  0  0  0  0  0  0  0  0  0  0  0
   12.3782    5.4231   20.7777 C   0  0  0  0  0  0  0  0  0  0  0  0
    7.7365    4.6508   21.6987 C   0  0  0  0  0  0  0  0  0  0  0  0
   13.0186   11.0102   18.0020 C   0  0  0  0  0  0  0  0  0  0  0  0
    8.6628    5.7088   21.8871 N   0  0  0  0  0  0  0  0  0  0  0  0
    5.6516    3.5258   21.9140 C   0  0  0  0  0  0  0  0  0  0  0  0
   11.5863    9.6815   19.4539 C   0  0  0  0  0  0  0  0  0  0  0  0
   12.9648    4.1543   20.9205 C   0  0  0  0  0  0  0  0  0  0  0  0
    8.2089    3.6265   20.8929 C   0  0  0  0  0  0  0  0  0  0  0  0
    7.3827    2.5724   20.5432 C   0  0  0  0  0  0  0  0  0  0  0  0
   11.1529    7.2750   20.8025 C   0  0  0  0  0  0  0  0  0  0  0  0
   10.2573    8.3215   20.9827 C   0  0  0  0  0  0  0  0  0  0  0  0
   11.1606    5.9378   21.2366 N   0  0  0  0  0  0  0  0  0  0  0  0
    9.8932   11.6736   19.0677 O   0  0  0  0  0  0  0  0  0  0  0  0
    6.4470    4.5850   22.2321 C   0  0  0  0  0  0  0  0  0  0  0  0
    8.4619    6.9895   22.2968 C   0  0  0  0  0  0  0  0  0  0  0  0
   12.2747    7.5102   20.0420 C   0  0  0  0  0  0  0  0  0  0  0  0
   14.2544    6.2142   19.4191 C   0  0  0  0  0  0  0  0  0  0  0  0
   13.0695    6.3705   20.0375 N   0  0  0  0  0  0  0  0  0  0  0  0
    9.1913    8.0876   21.8361 N   0  0  0  0  0  0  0  0  0  0  0  0
   10.4739    9.4813   20.2889 C   0  0  0  0  0  0  0  0  0  0  0  0
    7.5551    7.1270   23.1200 O   0  0  0  0  0  0  0  0  0  0  0  0
  1 11  4  0
  1 21  4  0
  2  4  1  0
  2  8  1  0
  2 11  1  0
  3 10  4  0
  3 14  4  0
  4  5  1  0
  4 18  2  0
  6 12  1  0
  6 17  4  0
  6 23  4  0
  7  9  1  0
  7 13  4  0
  7 19  4  0
  9 20  1  0
 10 19  4  0
 11 25  4  0
 13 14  4  0
 15 16  4  0
 15 17  4  0
 15 21  4  0
 16 24  1  0
 16 25  4  0
 20 24  1  0
 20 26  2  0
 21 23  4  0
 22 23  1  0
M  END
$$$$

 Created by Python create_sdf_string function

 26 28  0  0  0  0  0  0  0  0999 V2000
   12.4616    8.6700   19.4180 N   0  0  0  0  0  0  0  0  0  0  0  0
   11.8329   10.8148   18.6769 N   0  0  0  0  0  0  0  0  0  0  0  0
    6.1021    2.5564   21.0678 C   0  0  0  0  0  0  0  0  0  0  0  0
   10.9097   11.8051   18.4804 C   0  0  0  0  0  0  0  0  0  0  0  0
   11.2280   12.9135   17.5669 C   0  0  0  0  0  0  0  0  0  0  0  0
   12.3782    5.4231   20.7777 C   0  0  0  0  0  0  0  0  0  0  0  0
    7.7365    4.6508   21.6987 C   0  0  0  0  0  0  0  0  0  0  0  0
   13.0186   11.0102   18.0020 C   0  0  0  0  0  0  0  0  0  0  0  0
    8.6628    5.7088   21.8871 N   0  0  0  0  0  0  0  0  0  0  0  0
    5.6516    3.5258   21.9140 C   0  0  0  0  0  0  0  0  0  0  0  0
   11.5863    9.6815   19.4539 C   0  0  0  0  0  0  0  0  0  0  0  0
   12.9648    4.1543   20.9205 C   0  0  0  0  0  0  0  0  0  0  0  0
    8.2089    3.6265   20.8929 C   0  0  0  0  0  0  0  0  0  0  0  0
    7.3827    2.5724   20.5432 C   0  0  0  0  0  0  0  0  0  0  0  0
   11.1529    7.2750   20.8025 C   0  0  0  0  0  0  0  0  0  0  0  0
   10.2573    8.3215   20.9827 C   0  0  0  0  0  0  0  0  0  0  0  0
   11.1606    5.9378   21.2366 N   0  0  0  0  0  0  0  0  0  0  0  0
    9.8932   11.6736   19.0677 O   0  0  0  0  0  0  0  0  0  0  0  0
    6.4470    4.5850   22.2321 C   0  0  0  0  0  0  0  0  0  0  0  0
    8.4619    6.9895   22.2968 C   0  0  0  0  0  0  0  0  0  0  0  0
   12.2747    7.5102   20.0420 C   0  0  0  0  0  0  0  0  0  0  0  0
   14.2544    6.2142   19.4191 C   0  0  0  0  0  0  0  0  0  0  0  0
   13.0695    6.3705   20.0375 N   0  0  0  0  0  0  0  0  0  0  0  0
    9.1913    8.0876   21.8361 N   0  0  0  0  0  0  0  0  0  0  0  0
   10.4739    9.4813   20.2889 C   0  0  0  0  0  0  0  0  0  0  0  0
    7.5551    7.1270   23.1200 O   0  0  0  0  0  0  0  0  0  0  0  0
  1 11  4  0
  1 21  4  0
  2  4  1  0
  2  8  1  0
  2 11  1  0
  3 10  4  0
  3 14  4  0
  4  5  1  0
  4 18  2  0
  6 12  1  0
  6 17  4  0
  6 23  4  0
  7  9  1  0
  7 13  4  0
  7 19  4  0
  9 20  1  0
 10 19  4  0
 11 25  4  0
 13 14  4  0
 15 16  4  0
 15 17  4  0
 15 21  4  0
 16 24  1  0
 16 25  4  0
 20 24  1  0
 20 26  2  0
 21 23  4  0
 22 23  1  0
M  END
$$$$

 Created by Python create_sdf_string function

 26 28  0  0  0  0  0  0  0  0999 V2000
   12.4616    8.6700   19.4180 N   0  0  0  0  0  0  0  0  0  0  0  0
   11.8329   10.8148   18.6769 N   0  0  0  0  0  0  0  0  0  0  0  0
    6.1021    2.5564   21.0678 C   0  0  0  0  0  0  0  0  0  0  0  0
   10.9097   11.8051   18.4804 C   0  0  0  0  0  0  0  0  0  0  0  0
   11.2280   12.9135   17.5669 C   0  0  0  0  0  0  0  0  0  0  0  0
   12.3782    5.4231   20.7777 C   0  0  0  0  0  0  0  0  0  0  0  0
    7.7365    4.6508   21.6987 C   0  0  0  0  0  0  0  0  0  0  0  0
   13.0186   11.0102   18.0020 C   0  0  0  0  0  0  0  0  0  0  0  0
    8.6628    5.7088   21.8871 N   0  0  0  0  0  0  0  0  0  0  0  0
    5.6516    3.5258   21.9140 C   0  0  0  0  0  0  0  0  0  0  0  0
   11.5863    9.6815   19.4539 C   0  0  0  0  0  0  0  0  0  0  0  0
   12.9648    4.1543   20.9205 C   0  0  0  0  0  0  0  0  0  0  0  0
    8.2089    3.6265   20.8929 C   0  0  0  0  0  0  0  0  0  0  0  0
    7.3827    2.5724   20.5432 C   0  0  0  0  0  0  0  0  0  0  0  0
   11.1529    7.2750   20.8025 C   0  0  0  0  0  0  0  0  0  0  0  0
   10.2573    8.3215   20.9827 C   0  0  0  0  0  0  0  0  0  0  0  0
   11.1606    5.9378   21.2366 N   0  0  0  0  0  0  0  0  0  0  0  0
    9.8932   11.6736   19.0677 O   0  0  0  0  0  0  0  0  0  0  0  0
    6.4470    4.5850   22.2321 C   0  0  0  0  0  0  0  0  0  0  0  0
    8.4619    6.9895   22.2968 C   0  0  0  0  0  0  0  0  0  0  0  0
   12.2747    7.5102   20.0420 C   0  0  0  0  0  0  0  0  0  0  0  0
   14.2544    6.2142   19.4191 C   0  0  0  0  0  0  0  0  0  0  0  0
   13.0695    6.3705   20.0375 N   0  0  0  0  0  0  0  0  0  0  0  0
    9.1913    8.0876   21.8361 N   0  0  0  0  0  0  0  0  0  0  0  0
   10.4739    9.4813   20.2889 C   0  0  0  0  0  0  0  0  0  0  0  0
    7.5551    7.1270   23.1200 O   0  0  0  0  0  0  0  0  0  0  0  0
  1 11  4  0
  1 21  4  0
  2  4  1  0
  2  8  1  0
  2 11  1  0
  3 10  4  0
  3 14  4  0
  4  5  1  0
  4 18  2  0
  6 12  1  0
  6 17  4  0
  6 23  4  0
  7  9  1  0
  7 13  4  0
  7 19  4  0
  9 20  1  0
 10 19  4  0
 11 25  4  0
 13 14  4  0
 15 16  4  0
 15 17  4  0
 15 21  4  0
 16 24  1  0
 16 25  4  0
 20 24  1  0
 20 26  2  0
 21 23  4  0
 22 23  1  0
M  END
$$$$

 Created by Python create_sdf_string function

 26 28  0  0  0  0  0  0  0  0999 V2000
   12.4616    8.6700   19.4180 N   0  0  0  0  0  0  0  0  0  0  0  0
   11.8329   10.8148   18.6769 N   0  0  0  0  0  0  0  0  0  0  0  0
    6.1021    2.5564   21.0678 C   0  0  0  0  0  0  0  0  0  0  0  0
   10.9097   11.8051   18.4804 C   0  0  0  0  0  0  0  0  0  0  0  0
   11.2280   12.9135   17.5669 C   0  0  0  0  0  0  0  0  0  0  0  0
   12.3782    5.4231   20.7777 C   0  0  0  0  0  0  0  0  0  0  0  0
    7.7365    4.6508   21.6987 C   0  0  0  0  0  0  0  0  0  0  0  0
   13.0186   11.0102   18.0020 C   0  0  0  0  0  0  0  0  0  0  0  0
    8.6628    5.7088   21.8871 N   0  0  0  0  0  0  0  0  0  0  0  0
    5.6516    3.5258   21.9140 C   0  0  0  0  0  0  0  0  0  0  0  0
   11.5863    9.6815   19.4539 C   0  0  0  0  0  0  0  0  0  0  0  0
   12.9648    4.1543   20.9205 C   0  0  0  0  0  0  0  0  0  0  0  0
    8.2089    3.6265   20.8929 C   0  0  0  0  0  0  0  0  0  0  0  0
    7.3827    2.5724   20.5432 C   0  0  0  0  0  0  0  0  0  0  0  0
   11.1529    7.2750   20.8025 C   0  0  0  0  0  0  0  0  0  0  0  0
   10.2573    8.3215   20.9827 C   0  0  0  0  0  0  0  0  0  0  0  0
   11.1606    5.9378   21.2366 N   0  0  0  0  0  0  0  0  0  0  0  0
    9.8932   11.6736   19.0677 O   0  0  0  0  0  0  0  0  0  0  0  0
    6.4470    4.5850   22.2321 C   0  0  0  0  0  0  0  0  0  0  0  0
    8.4619    6.9895   22.2968 C   0  0  0  0  0  0  0  0  0  0  0  0
   12.2747    7.5102   20.0420 C   0  0  0  0  0  0  0  0  0  0  0  0
   14.2544    6.2142   19.4191 C   0  0  0  0  0  0  0  0  0  0  0  0
   13.0695    6.3705   20.0375 N   0  0  0  0  0  0  0  0  0  0  0  0
    9.1913    8.0876   21.8361 N   0  0  0  0  0  0  0  0  0  0  0  0
   10.4739    9.4813   20.2889 C   0  0  0  0  0  0  0  0  0  0  0  0
    7.5551    7.1270   23.1200 O   0  0  0  0  0  0  0  0  0  0  0  0
  1 11  4  0
  1 21  4  0
  2  4  1  0
  2  8  1  0
  2 11  1  0
  3 10  4  0
  3 14  4  0
  4  5  1  0
  4 18  2  0
  6 12  1  0
  6 17  4  0
  6 23  4  0
  7  9  1  0
  7 13  4  0
  7 19  4  0
  9 20  1  0
 10 19  4  0
 11 25  4  0
 13 14  4  0
 15 16  4  0
 15 17  4  0
 15 21  4  0
 16 24  1  0
 16 25  4  0
 20 24  1  0
 20 26  2  0
 21 23  4  0
 22 23  1  0
M  END
$$$$

 Created by Python create_sdf_string function

 26 28  0  0  0  0  0  0  0  0999 V2000
   12.4616    8.6700   19.4180 N   0  0  0  0  0  0  0  0  0  0  0  0
   11.8329   10.8148   18.6769 N   0  0  0  0  0  0  0  0  0  0  0  0
    6.1021    2.5564   21.0678 C   0  0  0  0  0  0  0  0  0  0  0  0
   10.9097   11.8051   18.4804 C   0  0  0  0  0  0  0  0  0  0  0  0
   11.2280   12.9135   17.5669 C   0  0  0  0  0  0  0  0  0  0  0  0
   12.3782    5.4231   20.7777 C   0  0  0  0  0  0  0  0  0  0  0  0
    7.7365    4.6508   21.6987 C   0  0  0  0  0  0  0  0  0  0  0  0
   13.0186   11.0102   18.0020 C   0  0  0  0  0  0  0  0  0  0  0  0
    8.6628    5.7088   21.8871 N   0  0  0  0  0  0  0  0  0  0  0  0
    5.6516    3.5258   21.9140 C   0  0  0  0  0  0  0  0  0  0  0  0
   11.5863    9.6815   19.4539 C   0  0  0  0  0  0  0  0  0  0  0  0
   12.9648    4.1543   20.9205 C   0  0  0  0  0  0  0  0  0  0  0  0
    8.2089    3.6265   20.8929 C   0  0  0  0  0  0  0  0  0  0  0  0
    7.3827    2.5724   20.5432 C   0  0  0  0  0  0  0  0  0  0  0  0
   11.1529    7.2750   20.8025 C   0  0  0  0  0  0  0  0  0  0  0  0
   10.2573    8.3215   20.9827 C   0  0  0  0  0  0  0  0  0  0  0  0
   11.1606    5.9378   21.2366 N   0  0  0  0  0  0  0  0  0  0  0  0
    9.8932   11.6736   19.0677 O   0  0  0  0  0  0  0  0  0  0  0  0
    6.4470    4.5850   22.2321 C   0  0  0  0  0  0  0  0  0  0  0  0
    8.4619    6.9895   22.2968 C   0  0  0  0  0  0  0  0  0  0  0  0
   12.2747    7.5102   20.0420 C   0  0  0  0  0  0  0  0  0  0  0  0
   14.2544    6.2142   19.4191 C   0  0  0  0  0  0  0  0  0  0  0  0
   13.0695    6.3705   20.0375 N   0  0  0  0  0  0  0  0  0  0  0  0
    9.1913    8.0876   21.8361 N   0  0  0  0  0  0  0  0  0  0  0  0
   10.4739    9.4813   20.2889 C   0  0  0  0  0  0  0  0  0  0  0  0
    7.5551    7.1270   23.1200 O   0  0  0  0  0  0  0  0  0  0  0  0
  1 11  4  0
  1 21  4  0
  2  4  1  0
  2  8  1  0
  2 11  1  0
  3 10  4  0
  3 14  4  0
  4  5  1  0
  4 18  2  0
  6 12  1  0
  6 17  4  0
  6 23  4  0
  7  9  1  0
  7 13  4  0
  7 19  4  0
  9 20  1  0
 10 19  4  0
 11 25  4  0
 13 14  4  0
 15 16  4  0
 15 17  4  0
 15 21  4  0
 16 24  1  0
 16 25  4  0
 20 24  1  0
 20 26  2  0
 21 23  4  0
 22 23  1  0
M  END
$$$$

 Created by Python create_sdf_string function

 26 28  0  0  0  0  0  0  0  0999 V2000
   12.4616    8.6700   19.4180 N   0  0  0  0  0  0  0  0  0  0  0  0
   11.8329   10.8148   18.6769 N   0  0  0  0  0  0  0  0  0  0  0  0
    6.1021    2.5564   21.0678 C   0  0  0  0  0  0  0  0  0  0  0  0
   10.9097   11.8051   18.4804 C   0  0  0  0  0  0  0  0  0  0  0  0
   11.2280   12.9135   17.5669 C   0  0  0  0  0  0  0  0  0  0  0  0
   12.3782    5.4231   20.7777 C   0  0  0  0  0  0  0  0  0  0  0  0
    7.7365    4.6508   21.6987 C   0  0  0  0  0  0  0  0  0  0  0  0
   13.0186   11.0102   18.0020 C   0  0  0  0  0  0  0  0  0  0  0  0
    8.6628    5.7088   21.8871 N   0  0  0  0  0  0  0  0  0  0  0  0
    5.6516    3.5258   21.9140 C   0  0  0  0  0  0  0  0  0  0  0  0
   11.5863    9.6815   19.4539 C   0  0  0  0  0  0  0  0  0  0  0  0
   12.9648    4.1543   20.9205 C   0  0  0  0  0  0  0  0  0  0  0  0
    8.2089    3.6265   20.8929 C   0  0  0  0  0  0  0  0  0  0  0  0
    7.3827    2.5724   20.5432 C   0  0  0  0  0  0  0  0  0  0  0  0
   11.1529    7.2750   20.8025 C   0  0  0  0  0  0  0  0  0  0  0  0
   10.2573    8.3215   20.9827 C   0  0  0  0  0  0  0  0  0  0  0  0
   11.1606    5.9378   21.2366 N   0  0  0  0  0  0  0  0  0  0  0  0
    9.8932   11.6736   19.0677 O   0  0  0  0  0  0  0  0  0  0  0  0
    6.4470    4.5850   22.2321 C   0  0  0  0  0  0  0  0  0  0  0  0
    8.4619    6.9895   22.2968 C   0  0  0  0  0  0  0  0  0  0  0  0
   12.2747    7.5102   20.0420 C   0  0  0  0  0  0  0  0  0  0  0  0
   14.2544    6.2142   19.4191 C   0  0  0  0  0  0  0  0  0  0  0  0
   13.0695    6.3705   20.0375 N   0  0  0  0  0  0  0  0  0  0  0  0
    9.1913    8.0876   21.8361 N   0  0  0  0  0  0  0  0  0  0  0  0
   10.4739    9.4813   20.2889 C   0  0  0  0  0  0  0  0  0  0  0  0
    7.5551    7.1270   23.1200 O   0  0  0  0  0  0  0  0  0  0  0  0
  1 11  4  0
  1 21  4  0
  2  4  1  0
  2  8  1  0
  2 11  1  0
  3 10  4  0
  3 14  4  0
  4  5  1  0
  4 18  2  0
  6 12  1  0
  6 17  4  0
  6 23  4  0
  7  9  1  0
  7 13  4  0
  7 19  4  0
  9 20  1  0
 10 19  4  0
 11 25  4  0
 13 14  4  0
 15 16  4  0
 15 17  4  0
 15 21  4  0
 16 24  1  0
 16 25  4  0
 20 24  1  0
 20 26  2  0
 21 23  4  0
 22 23  1  0
M  END
$$$$

 Created by Python create_sdf_string function

 26 28  0  0  0  0  0  0  0  0999 V2000
   12.4616    8.6700   19.4180 N   0  0  0  0  0  0  0  0  0  0  0  0
   11.8329   10.8148   18.6769 N   0  0  0  0  0  0  0  0  0  0  0  0
    6.1021    2.5564   21.0678 C   0  0  0  0  0  0  0  0  0  0  0  0
   10.9097   11.8051   18.4804 C   0  0  0  0  0  0  0  0  0  0  0  0
   11.2280   12.9135   17.5669 C   0  0  0  0  0  0  0  0  0  0  0  0
   12.3782    5.4231   20.7777 C   0  0  0  0  0  0  0  0  0  0  0  0
    7.7365    4.6508   21.6987 C   0  0  0  0  0  0  0  0  0  0  0  0
   13.0186   11.0102   18.0020 C   0  0  0  0  0  0  0  0  0  0  0  0
    8.6628    5.7088   21.8871 N   0  0  0  0  0  0  0  0  0  0  0  0
    5.6516    3.5258   21.9140 C   0  0  0  0  0  0  0  0  0  0  0  0
   11.5863    9.6815   19.4539 C   0  0  0  0  0  0  0  0  0  0  0  0
   12.9648    4.1543   20.9205 C   0  0  0  0  0  0  0  0  0  0  0  0
    8.2089    3.6265   20.8929 C   0  0  0  0  0  0  0  0  0  0  0  0
    7.3827    2.5724   20.5432 C   0  0  0  0  0  0  0  0  0  0  0  0
   11.1529    7.2750   20.8025 C   0  0  0  0  0  0  0  0  0  0  0  0
   10.2573    8.3215   20.9827 C   0  0  0  0  0  0  0  0  0  0  0  0
   11.1606    5.9378   21.2366 N   0  0  0  0  0  0  0  0  0  0  0  0
    9.8932   11.6736   19.0677 O   0  0  0  0  0  0  0  0  0  0  0  0
    6.4470    4.5850   22.2321 C   0  0  0  0  0  0  0  0  0  0  0  0
    8.4619    6.9895   22.2968 C   0  0  0  0  0  0  0  0  0  0  0  0
   12.2747    7.5102   20.0420 C   0  0  0  0  0  0  0  0  0  0  0  0
   14.2544    6.2142   19.4191 C   0  0  0  0  0  0  0  0  0  0  0  0
   13.0695    6.3705   20.0375 N   0  0  0  0  0  0  0  0  0  0  0  0
    9.1913    8.0876   21.8361 N   0  0  0  0  0  0  0  0  0  0  0  0
   10.4739    9.4813   20.2889 C   0  0  0  0  0  0  0  0  0  0  0  0
    7.5551    7.1270   23.1200 O   0  0  0  0  0  0  0  0  0  0  0  0
  1 11  4  0
  1 21  4  0
  2  4  1  0
  2  8  1  0
  2 11  1  0
  3 10  4  0
  3 14  4  0
  4  5  1  0
  4 18  2  0
  6 12  1  0
  6 17  4  0
  6 23  4  0
  7  9  1  0
  7 13  4  0
  7 19  4  0
  9 20  1  0
 10 19  4  0
 11 25  4  0
 13 14  4  0
 15 16  4  0
 15 17  4  0
 15 21  4  0
 16 24  1  0
 16 25  4  0
 20 24  1  0
 20 26  2  0
 21 23  4  0
 22 23  1  0
M  END
$$$$

 Created by Python create_sdf_string function

 26 28  0  0  0  0  0  0  0  0999 V2000
   12.4616    8.6700   19.4180 N   0  0  0  0  0  0  0  0  0  0  0  0
   11.8329   10.8148   18.6769 N   0  0  0  0  0  0  0  0  0  0  0  0
    6.1021    2.5564   21.0678 C   0  0  0  0  0  0  0  0  0  0  0  0
   10.9097   11.8051   18.4804 C   0  0  0  0  0  0  0  0  0  0  0  0
   11.2280   12.9135   17.5669 C   0  0  0  0  0  0  0  0  0  0  0  0
   12.3782    5.4231   20.7777 C   0  0  0  0  0  0  0  0  0  0  0  0
    7.7365    4.6508   21.6987 C   0  0  0  0  0  0  0  0  0  0  0  0
   13.0186   11.0102   18.0020 C   0  0  0  0  0  0  0  0  0  0  0  0
    8.6628    5.7088   21.8871 N   0  0  0  0  0  0  0  0  0  0  0  0
    5.6516    3.5258   21.9140 C   0  0  0  0  0  0  0  0  0  0  0  0
   11.5863    9.6815   19.4539 C   0  0  0  0  0  0  0  0  0  0  0  0
   12.9648    4.1543   20.9205 C   0  0  0  0  0  0  0  0  0  0  0  0
    8.2089    3.6265   20.8929 C   0  0  0  0  0  0  0  0  0  0  0  0
    7.3827    2.5724   20.5432 C   0  0  0  0  0  0  0  0  0  0  0  0
   11.1529    7.2750   20.8025 C   0  0  0  0  0  0  0  0  0  0  0  0
   10.2573    8.3215   20.9827 C   0  0  0  0  0  0  0  0  0  0  0  0
   11.1606    5.9378   21.2366 N   0  0  0  0  0  0  0  0  0  0  0  0
    9.8932   11.6736   19.0677 O   0  0  0  0  0  0  0  0  0  0  0  0
    6.4470    4.5850   22.2321 C   0  0  0  0  0  0  0  0  0  0  0  0
    8.4619    6.9895   22.2968 C   0  0  0  0  0  0  0  0  0  0  0  0
   12.2747    7.5102   20.0420 C   0  0  0  0  0  0  0  0  0  0  0  0
   14.2544    6.2142   19.4191 C   0  0  0  0  0  0  0  0  0  0  0  0
   13.0695    6.3705   20.0375 N   0  0  0  0  0  0  0  0  0  0  0  0
    9.1913    8.0876   21.8361 N   0  0  0  0  0  0  0  0  0  0  0  0
   10.4739    9.4813   20.2889 C   0  0  0  0  0  0  0  0  0  0  0  0
    7.5551    7.1270   23.1200 O   0  0  0  0  0  0  0  0  0  0  0  0
  1 11  4  0
  1 21  4  0
  2  4  1  0
  2  8  1  0
  2 11  1  0
  3 10  4  0
  3 14  4  0
  4  5  1  0
  4 18  2  0
  6 12  1  0
  6 17  4  0
  6 23  4  0
  7  9  1  0
  7 13  4  0
  7 19  4  0
  9 20  1  0
 10 19  4  0
 11 25  4  0
 13 14  4  0
 15 16  4  0
 15 17  4  0
 15 21  4  0
 16 24  1  0
 16 25  4  0
 20 24  1  0
 20 26  2  0
 21 23  4  0
 22 23  1  0
M  END
$$$$

 Created by Python create_sdf_string function

 26 28  0  0  0  0  0  0  0  0999 V2000
   12.4616    8.6700   19.4180 N   0  0  0  0  0  0  0  0  0  0  0  0
   11.8329   10.8148   18.6769 N   0  0  0  0  0  0  0  0  0  0  0  0
    6.1021    2.5564   21.0678 C   0  0  0  0  0  0  0  0  0  0  0  0
   10.9097   11.8051   18.4804 C   0  0  0  0  0  0  0  0  0  0  0  0
   11.2280   12.9135   17.5669 C   0  0  0  0  0  0  0  0  0  0  0  0
   12.3782    5.4231   20.7777 C   0  0  0  0  0  0  0  0  0  0  0  0
    7.7365    4.6508   21.6987 C   0  0  0  0  0  0  0  0  0  0  0  0
   13.0186   11.0102   18.0020 C   0  0  0  0  0  0  0  0  0  0  0  0
    8.6628    5.7088   21.8871 N   0  0  0  0  0  0  0  0  0  0  0  0
    5.6516    3.5258   21.9140 C   0  0  0  0  0  0  0  0  0  0  0  0
   11.5863    9.6815   19.4539 C   0  0  0  0  0  0  0  0  0  0  0  0
   12.9648    4.1543   20.9205 C   0  0  0  0  0  0  0  0  0  0  0  0
    8.2089    3.6265   20.8929 C   0  0  0  0  0  0  0  0  0  0  0  0
    7.3827    2.5724   20.5432 C   0  0  0  0  0  0  0  0  0  0  0  0
   11.1529    7.2750   20.8025 C   0  0  0  0  0  0  0  0  0  0  0  0
   10.2573    8.3215   20.9827 C   0  0  0  0  0  0  0  0  0  0  0  0
   11.1606    5.9378   21.2366 N   0  0  0  0  0  0  0  0  0  0  0  0
    9.8932   11.6736   19.0677 O   0  0  0  0  0  0  0  0  0  0  0  0
    6.4470    4.5850   22.2321 C   0  0  0  0  0  0  0  0  0  0  0  0
    8.4619    6.9895   22.2968 C   0  0  0  0  0  0  0  0  0  0  0  0
   12.2747    7.5102   20.0420 C   0  0  0  0  0  0  0  0  0  0  0  0
   14.2544    6.2142   19.4191 C   0  0  0  0  0  0  0  0  0  0  0  0
   13.0695    6.3705   20.0375 N   0  0  0  0  0  0  0  0  0  0  0  0
    9.1913    8.0876   21.8361 N   0  0  0  0  0  0  0  0  0  0  0  0
   10.4739    9.4813   20.2889 C   0  0  0  0  0  0  0  0  0  0  0  0
    7.5551    7.1270   23.1200 O   0  0  0  0  0  0  0  0  0  0  0  0
  1 11  4  0
  1 21  4  0
  2  4  1  0
  2  8  1  0
  2 11  1  0
  3 10  4  0
  3 14  4  0
  4  5  1  0
  4 18  2  0
  6 12  1  0
  6 17  4  0
  6 23  4  0
  7  9  1  0
  7 13  4  0
  7 19  4  0
  9 20  1  0
 10 19  4  0
 11 25  4  0
 13 14  4  0
 15 16  4  0
 15 17  4  0
 15 21  4  0
 16 24  1  0
 16 25  4  0
 20 24  1  0
 20 26  2  0
 21 23  4  0
 22 23  1  0
M  END
$$$$

 Created by Python create_sdf_string function

 26 28  0  0  0  0  0  0  0  0999 V2000
   12.4616    8.6700   19.4180 N   0  0  0  0  0  0  0  0  0  0  0  0
   11.8329   10.8148   18.6769 N   0  0  0  0  0  0  0  0  0  0  0  0
    6.1021    2.5564   21.0678 C   0  0  0  0  0  0  0  0  0  0  0  0
   10.9097   11.8051   18.4804 C   0  0  0  0  0  0  0  0  0  0  0  0
   11.2280   12.9135   17.5669 C   0  0  0  0  0  0  0  0  0  0  0  0
   12.3782    5.4231   20.7777 C   0  0  0  0  0  0  0  0  0  0  0  0
    7.7365    4.6508   21.6987 C   0  0  0  0  0  0  0  0  0  0  0  0
   13.0186   11.0102   18.0020 C   0  0  0  0  0  0  0  0  0  0  0  0
    8.6628    5.7088   21.8871 N   0  0  0  0  0  0  0  0  0  0  0  0
    5.6516    3.5258   21.9140 C   0  0  0  0  0  0  0  0  0  0  0  0
   11.5863    9.6815   19.4539 C   0  0  0  0  0  0  0  0  0  0  0  0
   12.9648    4.1543   20.9205 C   0  0  0  0  0  0  0  0  0  0  0  0
    8.2089    3.6265   20.8929 C   0  0  0  0  0  0  0  0  0  0  0  0
    7.3827    2.5724   20.5432 C   0  0  0  0  0  0  0  0  0  0  0  0
   11.1529    7.2750   20.8025 C   0  0  0  0  0  0  0  0  0  0  0  0
   10.2573    8.3215   20.9827 C   0  0  0  0  0  0  0  0  0  0  0  0
   11.1606    5.9378   21.2366 N   0  0  0  0  0  0  0  0  0  0  0  0
    9.8932   11.6736   19.0677 O   0  0  0  0  0  0  0  0  0  0  0  0
    6.4470    4.5850   22.2321 C   0  0  0  0  0  0  0  0  0  0  0  0
    8.4619    6.9895   22.2968 C   0  0  0  0  0  0  0  0  0  0  0  0
   12.2747    7.5102   20.0420 C   0  0  0  0  0  0  0  0  0  0  0  0
   14.2544    6.2142   19.4191 C   0  0  0  0  0  0  0  0  0  0  0  0
   13.0695    6.3705   20.0375 N   0  0  0  0  0  0  0  0  0  0  0  0
    9.1913    8.0876   21.8361 N   0  0  0  0  0  0  0  0  0  0  0  0
   10.4739    9.4813   20.2889 C   0  0  0  0  0  0  0  0  0  0  0  0
    7.5551    7.1270   23.1200 O   0  0  0  0  0  0  0  0  0  0  0  0
  1 11  4  0
  1 21  4  0
  2  4  1  0
  2  8  1  0
  2 11  1  0
  3 10  4  0
  3 14  4  0
  4  5  1  0
  4 18  2  0
  6 12  1  0
  6 17  4  0
  6 23  4  0
  7  9  1  0
  7 13  4  0
  7 19  4  0
  9 20  1  0
 10 19  4  0
 11 25  4  0
 13 14  4  0
 15 16  4  0
 15 17  4  0
 15 21  4  0
 16 24  1  0
 16 25  4  0
 20 24  1  0
 20 26  2  0
 21 23  4  0
 22 23  1  0
M  END
$$$$

 Created by Python create_sdf_string function

 26 28  0  0  0  0  0  0  0  0999 V2000
   12.4616    8.6700   19.4180 N   0  0  0  0  0  0  0  0  0  0  0  0
   11.8329   10.8148   18.6769 N   0  0  0  0  0  0  0  0  0  0  0  0
    6.1021    2.5564   21.0678 C   0  0  0  0  0  0  0  0  0  0  0  0
   10.9097   11.8051   18.4804 C   0  0  0  0  0  0  0  0  0  0  0  0
   11.2280   12.9135   17.5669 C   0  0  0  0  0  0  0  0  0  0  0  0
   12.3782    5.4231   20.7777 C   0  0  0  0  0  0  0  0  0  0  0  0
    7.7365    4.6508   21.6987 C   0  0  0  0  0  0  0  0  0  0  0  0
   13.0186   11.0102   18.0020 C   0  0  0  0  0  0  0  0  0  0  0  0
    8.6628    5.7088   21.8871 N   0  0  0  0  0  0  0  0  0  0  0  0
    5.6516    3.5258   21.9140 C   0  0  0  0  0  0  0  0  0  0  0  0
   11.5863    9.6815   19.4539 C   0  0  0  0  0  0  0  0  0  0  0  0
   12.9648    4.1543   20.9205 C   0  0  0  0  0  0  0  0  0  0  0  0
    8.2089    3.6265   20.8929 C   0  0  0  0  0  0  0  0  0  0  0  0
    7.3827    2.5724   20.5432 C   0  0  0  0  0  0  0  0  0  0  0  0
   11.1529    7.2750   20.8025 C   0  0  0  0  0  0  0  0  0  0  0  0
   10.2573    8.3215   20.9827 C   0  0  0  0  0  0  0  0  0  0  0  0
   11.1606    5.9378   21.2366 N   0  0  0  0  0  0  0  0  0  0  0  0
    9.8932   11.6736   19.0677 O   0  0  0  0  0  0  0  0  0  0  0  0
    6.4470    4.5850   22.2321 C   0  0  0  0  0  0  0  0  0  0  0  0
    8.4619    6.9895   22.2968 C   0  0  0  0  0  0  0  0  0  0  0  0
   12.2747    7.5102   20.0420 C   0  0  0  0  0  0  0  0  0  0  0  0
   14.2544    6.2142   19.4191 C   0  0  0  0  0  0  0  0  0  0  0  0
   13.0695    6.3705   20.0375 N   0  0  0  0  0  0  0  0  0  0  0  0
    9.1913    8.0876   21.8361 N   0  0  0  0  0  0  0  0  0  0  0  0
   10.4739    9.4813   20.2889 C   0  0  0  0  0  0  0  0  0  0  0  0
    7.5551    7.1270   23.1200 O   0  0  0  0  0  0  0  0  0  0  0  0
  1 11  4  0
  1 21  4  0
  2  4  1  0
  2  8  1  0
  2 11  1  0
  3 10  4  0
  3 14  4  0
  4  5  1  0
  4 18  2  0
  6 12  1  0
  6 17  4  0
  6 23  4  0
  7  9  1  0
  7 13  4  0
  7 19  4  0
  9 20  1  0
 10 19  4  0
 11 25  4  0
 13 14  4  0
 15 16  4  0
 15 17  4  0
 15 21  4  0
 16 24  1  0
 16 25  4  0
 20 24  1  0
 20 26  2  0
 21 23  4  0
 22 23  1  0
M  END
$$$$

 Created by Python create_sdf_string function

 26 28  0  0  0  0  0  0  0  0999 V2000
   12.4616    8.6700   19.4180 N   0  0  0  0  0  0  0  0  0  0  0  0
   11.8329   10.8148   18.6769 N   0  0  0  0  0  0  0  0  0  0  0  0
    6.1021    2.5564   21.0678 C   0  0  0  0  0  0  0  0  0  0  0  0
   10.9097   11.8051   18.4804 C   0  0  0  0  0  0  0  0  0  0  0  0
   11.2280   12.9135   17.5669 C   0  0  0  0  0  0  0  0  0  0  0  0
   12.3782    5.4231   20.7777 C   0  0  0  0  0  0  0  0  0  0  0  0
    7.7365    4.6508   21.6987 C   0  0  0  0  0  0  0  0  0  0  0  0
   13.0186   11.0102   18.0020 C   0  0  0  0  0  0  0  0  0  0  0  0
    8.6628    5.7088   21.8871 N   0  0  0  0  0  0  0  0  0  0  0  0
    5.6516    3.5258   21.9140 C   0  0  0  0  0  0  0  0  0  0  0  0
   11.5863    9.6815   19.4539 C   0  0  0  0  0  0  0  0  0  0  0  0
   12.9648    4.1543   20.9205 C   0  0  0  0  0  0  0  0  0  0  0  0
    8.2089    3.6265   20.8929 C   0  0  0  0  0  0  0  0  0  0  0  0
    7.3827    2.5724   20.5432 C   0  0  0  0  0  0  0  0  0  0  0  0
   11.1529    7.2750   20.8025 C   0  0  0  0  0  0  0  0  0  0  0  0
   10.2573    8.3215   20.9827 C   0  0  0  0  0  0  0  0  0  0  0  0
   11.1606    5.9378   21.2366 N   0  0  0  0  0  0  0  0  0  0  0  0
    9.8932   11.6736   19.0677 O   0  0  0  0  0  0  0  0  0  0  0  0
    6.4470    4.5850   22.2321 C   0  0  0  0  0  0  0  0  0  0  0  0
    8.4619    6.9895   22.2968 C   0  0  0  0  0  0  0  0  0  0  0  0
   12.2747    7.5102   20.0420 C   0  0  0  0  0  0  0  0  0  0  0  0
   14.2544    6.2142   19.4191 C   0  0  0  0  0  0  0  0  0  0  0  0
   13.0695    6.3705   20.0375 N   0  0  0  0  0  0  0  0  0  0  0  0
    9.1913    8.0876   21.8361 N   0  0  0  0  0  0  0  0  0  0  0  0
   10.4739    9.4813   20.2889 C   0  0  0  0  0  0  0  0  0  0  0  0
    7.5551    7.1270   23.1200 O   0  0  0  0  0  0  0  0  0  0  0  0
  1 11  4  0
  1 21  4  0
  2  4  1  0
  2  8  1  0
  2 11  1  0
  3 10  4  0
  3 14  4  0
  4  5  1  0
  4 18  2  0
  6 12  1  0
  6 17  4  0
  6 23  4  0
  7  9  1  0
  7 13  4  0
  7 19  4  0
  9 20  1  0
 10 19  4  0
 11 25  4  0
 13 14  4  0
 15 16  4  0
 15 17  4  0
 15 21  4  0
 16 24  1  0
 16 25  4  0
 20 24  1  0
 20 26  2  0
 21 23  4  0
 22 23  1  0
M  END
$$$$

 Created by Python create_sdf_string function

 26 28  0  0  0  0  0  0  0  0999 V2000
   12.4616    8.6700   19.4180 N   0  0  0  0  0  0  0  0  0  0  0  0
   11.8329   10.8148   18.6769 N   0  0  0  0  0  0  0  0  0  0  0  0
    6.1021    2.5564   21.0678 C   0  0  0  0  0  0  0  0  0  0  0  0
   10.9097   11.8051   18.4804 C   0  0  0  0  0  0  0  0  0  0  0  0
   11.2280   12.9135   17.5669 C   0  0  0  0  0  0  0  0  0  0  0  0
   12.3782    5.4231   20.7777 C   0  0  0  0  0  0  0  0  0  0  0  0
    7.7365    4.6508   21.6987 C   0  0  0  0  0  0  0  0  0  0  0  0
   13.0186   11.0102   18.0020 C   0  0  0  0  0  0  0  0  0  0  0  0
    8.6628    5.7088   21.8871 N   0  0  0  0  0  0  0  0  0  0  0  0
    5.6516    3.5258   21.9140 C   0  0  0  0  0  0  0  0  0  0  0  0
   11.5863    9.6815   19.4539 C   0  0  0  0  0  0  0  0  0  0  0  0
   12.9648    4.1543   20.9205 C   0  0  0  0  0  0  0  0  0  0  0  0
    8.2089    3.6265   20.8929 C   0  0  0  0  0  0  0  0  0  0  0  0
    7.3827    2.5724   20.5432 C   0  0  0  0  0  0  0  0  0  0  0  0
   11.1529    7.2750   20.8025 C   0  0  0  0  0  0  0  0  0  0  0  0
   10.2573    8.3215   20.9827 C   0  0  0  0  0  0  0  0  0  0  0  0
   11.1606    5.9378   21.2366 N   0  0  0  0  0  0  0  0  0  0  0  0
    9.8932   11.6736   19.0677 O   0  0  0  0  0  0  0  0  0  0  0  0
    6.4470    4.5850   22.2321 C   0  0  0  0  0  0  0  0  0  0  0  0
    8.4619    6.9895   22.2968 C   0  0  0  0  0  0  0  0  0  0  0  0
   12.2747    7.5102   20.0420 C   0  0  0  0  0  0  0  0  0  0  0  0
   14.2544    6.2142   19.4191 C   0  0  0  0  0  0  0  0  0  0  0  0
   13.0695    6.3705   20.0375 N   0  0  0  0  0  0  0  0  0  0  0  0
    9.1913    8.0876   21.8361 N   0  0  0  0  0  0  0  0  0  0  0  0
   10.4739    9.4813   20.2889 C   0  0  0  0  0  0  0  0  0  0  0  0
    7.5551    7.1270   23.1200 O   0  0  0  0  0  0  0  0  0  0  0  0
  1 11  4  0
  1 21  4  0
  2  4  1  0
  2  8  1  0
  2 11  1  0
  3 10  4  0
  3 14  4  0
  4  5  1  0
  4 18  2  0
  6 12  1  0
  6 17  4  0
  6 23  4  0
  7  9  1  0
  7 13  4  0
  7 19  4  0
  9 20  1  0
 10 19  4  0
 11 25  4  0
 13 14  4  0
 15 16  4  0
 15 17  4  0
 15 21  4  0
 16 24  1  0
 16 25  4  0
 20 24  1  0
 20 26  2  0
 21 23  4  0
 22 23  1  0
M  END
$$$$

 Created by Python create_sdf_string function

 26 28  0  0  0  0  0  0  0  0999 V2000
   12.4616    8.6700   19.4180 N   0  0  0  0  0  0  0  0  0  0  0  0
   11.8329   10.8148   18.6769 N   0  0  0  0  0  0  0  0  0  0  0  0
    6.1021    2.5564   21.0678 C   0  0  0  0  0  0  0  0  0  0  0  0
   10.9097   11.8051   18.4804 C   0  0  0  0  0  0  0  0  0  0  0  0
   11.2280   12.9135   17.5669 C   0  0  0  0  0  0  0  0  0  0  0  0
   12.3782    5.4231   20.7777 C   0  0  0  0  0  0  0  0  0  0  0  0
    7.7365    4.6508   21.6987 C   0  0  0  0  0  0  0  0  0  0  0  0
   13.0186   11.0102   18.0020 C   0  0  0  0  0  0  0  0  0  0  0  0
    8.6628    5.7088   21.8871 N   0  0  0  0  0  0  0  0  0  0  0  0
    5.6516    3.5258   21.9140 C   0  0  0  0  0  0  0  0  0  0  0  0
   11.5863    9.6815   19.4539 C   0  0  0  0  0  0  0  0  0  0  0  0
   12.9648    4.1543   20.9205 C   0  0  0  0  0  0  0  0  0  0  0  0
    8.2089    3.6265   20.8929 C   0  0  0  0  0  0  0  0  0  0  0  0
    7.3827    2.5724   20.5432 C   0  0  0  0  0  0  0  0  0  0  0  0
   11.1529    7.2750   20.8025 C   0  0  0  0  0  0  0  0  0  0  0  0
   10.2573    8.3215   20.9827 C   0  0  0  0  0  0  0  0  0  0  0  0
   11.1606    5.9378   21.2366 N   0  0  0  0  0  0  0  0  0  0  0  0
    9.8932   11.6736   19.0677 O   0  0  0  0  0  0  0  0  0  0  0  0
    6.4470    4.5850   22.2321 C   0  0  0  0  0  0  0  0  0  0  0  0
    8.4619    6.9895   22.2968 C   0  0  0  0  0  0  0  0  0  0  0  0
   12.2747    7.5102   20.0420 C   0  0  0  0  0  0  0  0  0  0  0  0
   14.2544    6.2142   19.4191 C   0  0  0  0  0  0  0  0  0  0  0  0
   13.0695    6.3705   20.0375 N   0  0  0  0  0  0  0  0  0  0  0  0
    9.1913    8.0876   21.8361 N   0  0  0  0  0  0  0  0  0  0  0  0
   10.4739    9.4813   20.2889 C   0  0  0  0  0  0  0  0  0  0  0  0
    7.5551    7.1270   23.1200 O   0  0  0  0  0  0  0  0  0  0  0  0
  1 11  4  0
  1 21  4  0
  2  4  1  0
  2  8  1  0
  2 11  1  0
  3 10  4  0
  3 14  4  0
  4  5  1  0
  4 18  2  0
  6 12  1  0
  6 17  4  0
  6 23  4  0
  7  9  1  0
  7 13  4  0
  7 19  4  0
  9 20  1  0
 10 19  4  0
 11 25  4  0
 13 14  4  0
 15 16  4  0
 15 17  4  0
 15 21  4  0
 16 24  1  0
 16 25  4  0
 20 24  1  0
 20 26  2  0
 21 23  4  0
 22 23  1  0
M  END
$$$$

 Created by Python create_sdf_string function

 26 28  0  0  0  0  0  0  0  0999 V2000
   12.4616    8.6700   19.4180 N   0  0  0  0  0  0  0  0  0  0  0  0
   11.8329   10.8148   18.6769 N   0  0  0  0  0  0  0  0  0  0  0  0
    6.1021    2.5564   21.0678 C   0  0  0  0  0  0  0  0  0  0  0  0
   10.9097   11.8051   18.4804 C   0  0  0  0  0  0  0  0  0  0  0  0
   11.2280   12.9135   17.5669 C   0  0  0  0  0  0  0  0  0  0  0  0
   12.3782    5.4231   20.7777 C   0  0  0  0  0  0  0  0  0  0  0  0
    7.7365    4.6508   21.6987 C   0  0  0  0  0  0  0  0  0  0  0  0
   13.0186   11.0102   18.0020 C   0  0  0  0  0  0  0  0  0  0  0  0
    8.6628    5.7088   21.8871 N   0  0  0  0  0  0  0  0  0  0  0  0
    5.6516    3.5258   21.9140 C   0  0  0  0  0  0  0  0  0  0  0  0
   11.5863    9.6815   19.4539 C   0  0  0  0  0  0  0  0  0  0  0  0
   12.9648    4.1543   20.9205 C   0  0  0  0  0  0  0  0  0  0  0  0
    8.2089    3.6265   20.8929 C   0  0  0  0  0  0  0  0  0  0  0  0
    7.3827    2.5724   20.5432 C   0  0  0  0  0  0  0  0  0  0  0  0
   11.1529    7.2750   20.8025 C   0  0  0  0  0  0  0  0  0  0  0  0
   10.2573    8.3215   20.9827 C   0  0  0  0  0  0  0  0  0  0  0  0
   11.1606    5.9378   21.2366 N   0  0  0  0  0  0  0  0  0  0  0  0
    9.8932   11.6736   19.0677 O   0  0  0  0  0  0  0  0  0  0  0  0
    6.4470    4.5850   22.2321 C   0  0  0  0  0  0  0  0  0  0  0  0
    8.4619    6.9895   22.2968 C   0  0  0  0  0  0  0  0  0  0  0  0
   12.2747    7.5102   20.0420 C   0  0  0  0  0  0  0  0  0  0  0  0
   14.2544    6.2142   19.4191 C   0  0  0  0  0  0  0  0  0  0  0  0
   13.0695    6.3705   20.0375 N   0  0  0  0  0  0  0  0  0  0  0  0
    9.1913    8.0876   21.8361 N   0  0  0  0  0  0  0  0  0  0  0  0
   10.4739    9.4813   20.2889 C   0  0  0  0  0  0  0  0  0  0  0  0
    7.5551    7.1270   23.1200 O   0  0  0  0  0  0  0  0  0  0  0  0
  1 11  4  0
  1 21  4  0
  2  4  1  0
  2  8  1  0
  2 11  1  0
  3 10  4  0
  3 14  4  0
  4  5  1  0
  4 18  2  0
  6 12  1  0
  6 17  4  0
  6 23  4  0
  7  9  1  0
  7 13  4  0
  7 19  4  0
  9 20  1  0
 10 19  4  0
 11 25  4  0
 13 14  4  0
 15 16  4  0
 15 17  4  0
 15 21  4  0
 16 24  1  0
 16 25  4  0
 20 24  1  0
 20 26  2  0
 21 23  4  0
 22 23  1  0
M  END
$$$$

 Created by Python create_sdf_string function

 26 28  0  0  0  0  0  0  0  0999 V2000
   12.4616    8.6700   19.4180 N   0  0  0  0  0  0  0  0  0  0  0  0
   11.8329   10.8148   18.6769 N   0  0  0  0  0  0  0  0  0  0  0  0
    6.1021    2.5564   21.0678 C   0  0  0  0  0  0  0  0  0  0  0  0
   10.9097   11.8051   18.4804 C   0  0  0  0  0  0  0  0  0  0  0  0
   11.2280   12.9135   17.5669 C   0  0  0  0  0  0  0  0  0  0  0  0
   12.3782    5.4231   20.7777 C   0  0  0  0  0  0  0  0  0  0  0  0
    7.7365    4.6508   21.6987 C   0  0  0  0  0  0  0  0  0  0  0  0
   13.0186   11.0102   18.0020 C   0  0  0  0  0  0  0  0  0  0  0  0
    8.6628    5.7088   21.8871 N   0  0  0  0  0  0  0  0  0  0  0  0
    5.6516    3.5258   21.9140 C   0  0  0  0  0  0  0  0  0  0  0  0
   11.5863    9.6815   19.4539 C   0  0  0  0  0  0  0  0  0  0  0  0
   12.9648    4.1543   20.9205 C   0  0  0  0  0  0  0  0  0  0  0  0
    8.2089    3.6265   20.8929 C   0  0  0  0  0  0  0  0  0  0  0  0
    7.3827    2.5724   20.5432 C   0  0  0  0  0  0  0  0  0  0  0  0
   11.1529    7.2750   20.8025 C   0  0  0  0  0  0  0  0  0  0  0  0
   10.2573    8.3215   20.9827 C   0  0  0  0  0  0  0  0  0  0  0  0
   11.1606    5.9378   21.2366 N   0  0  0  0  0  0  0  0  0  0  0  0
    9.8932   11.6736   19.0677 O   0  0  0  0  0  0  0  0  0  0  0  0
    6.4470    4.5850   22.2321 C   0  0  0  0  0  0  0  0  0  0  0  0
    8.4619    6.9895   22.2968 C   0  0  0  0  0  0  0  0  0  0  0  0
   12.2747    7.5102   20.0420 C   0  0  0  0  0  0  0  0  0  0  0  0
   14.2544    6.2142   19.4191 C   0  0  0  0  0  0  0  0  0  0  0  0
   13.0695    6.3705   20.0375 N   0  0  0  0  0  0  0  0  0  0  0  0
    9.1913    8.0876   21.8361 N   0  0  0  0  0  0  0  0  0  0  0  0
   10.4739    9.4813   20.2889 C   0  0  0  0  0  0  0  0  0  0  0  0
    7.5551    7.1270   23.1200 O   0  0  0  0  0  0  0  0  0  0  0  0
  1 11  4  0
  1 21  4  0
  2  4  1  0
  2  8  1  0
  2 11  1  0
  3 10  4  0
  3 14  4  0
  4  5  1  0
  4 18  2  0
  6 12  1  0
  6 17  4  0
  6 23  4  0
  7  9  1  0
  7 13  4  0
  7 19  4  0
  9 20  1  0
 10 19  4  0
 11 25  4  0
 13 14  4  0
 15 16  4  0
 15 17  4  0
 15 21  4  0
 16 24  1  0
 16 25  4  0
 20 24  1  0
 20 26  2  0
 21 23  4  0
 22 23  1  0
M  END
$$$$

 Created by Python create_sdf_string function

 26 28  0  0  0  0  0  0  0  0999 V2000
   12.4616    8.6700   19.4180 N   0  0  0  0  0  0  0  0  0  0  0  0
   11.8329   10.8148   18.6769 N   0  0  0  0  0  0  0  0  0  0  0  0
    6.1021    2.5564   21.0678 C   0  0  0  0  0  0  0  0  0  0  0  0
   10.9097   11.8051   18.4804 C   0  0  0  0  0  0  0  0  0  0  0  0
   11.2280   12.9135   17.5669 C   0  0  0  0  0  0  0  0  0  0  0  0
   12.3782    5.4231   20.7777 C   0  0  0  0  0  0  0  0  0  0  0  0
    7.7365    4.6508   21.6987 C   0  0  0  0  0  0  0  0  0  0  0  0
   13.0186   11.0102   18.0020 C   0  0  0  0  0  0  0  0  0  0  0  0
    8.6628    5.7088   21.8871 N   0  0  0  0  0  0  0  0  0  0  0  0
    5.6516    3.5258   21.9140 C   0  0  0  0  0  0  0  0  0  0  0  0
   11.5863    9.6815   19.4539 C   0  0  0  0  0  0  0  0  0  0  0  0
   12.9648    4.1543   20.9205 C   0  0  0  0  0  0  0  0  0  0  0  0
    8.2089    3.6265   20.8929 C   0  0  0  0  0  0  0  0  0  0  0  0
    7.3827    2.5724   20.5432 C   0  0  0  0  0  0  0  0  0  0  0  0
   11.1529    7.2750   20.8025 C   0  0  0  0  0  0  0  0  0  0  0  0
   10.2573    8.3215   20.9827 C   0  0  0  0  0  0  0  0  0  0  0  0
   11.1606    5.9378   21.2366 N   0  0  0  0  0  0  0  0  0  0  0  0
    9.8932   11.6736   19.0677 O   0  0  0  0  0  0  0  0  0  0  0  0
    6.4470    4.5850   22.2321 C   0  0  0  0  0  0  0  0  0  0  0  0
    8.4619    6.9895   22.2968 C   0  0  0  0  0  0  0  0  0  0  0  0
   12.2747    7.5102   20.0420 C   0  0  0  0  0  0  0  0  0  0  0  0
   14.2544    6.2142   19.4191 C   0  0  0  0  0  0  0  0  0  0  0  0
   13.0695    6.3705   20.0375 N   0  0  0  0  0  0  0  0  0  0  0  0
    9.1913    8.0876   21.8361 N   0  0  0  0  0  0  0  0  0  0  0  0
   10.4739    9.4813   20.2889 C   0  0  0  0  0  0  0  0  0  0  0  0
    7.5551    7.1270   23.1200 O   0  0  0  0  0  0  0  0  0  0  0  0
  1 11  4  0
  1 21  4  0
  2  4  1  0
  2  8  1  0
  2 11  1  0
  3 10  4  0
  3 14  4  0
  4  5  1  0
  4 18  2  0
  6 12  1  0
  6 17  4  0
  6 23  4  0
  7  9  1  0
  7 13  4  0
  7 19  4  0
  9 20  1  0
 10 19  4  0
 11 25  4  0
 13 14  4  0
 15 16  4  0
 15 17  4  0
 15 21  4  0
 16 24  1  0
 16 25  4  0
 20 24  1  0
 20 26  2  0
 21 23  4  0
 22 23  1  0
M  END
$$$$

 Created by Python create_sdf_string function

 26 28  0  0  0  0  0  0  0  0999 V2000
   12.4616    8.6700   19.4180 N   0  0  0  0  0  0  0  0  0  0  0  0
   11.8329   10.8148   18.6769 N   0  0  0  0  0  0  0  0  0  0  0  0
    6.1021    2.5564   21.0678 C   0  0  0  0  0  0  0  0  0  0  0  0
   10.9097   11.8051   18.4804 C   0  0  0  0  0  0  0  0  0  0  0  0
   11.2280   12.9135   17.5669 C   0  0  0  0  0  0  0  0  0  0  0  0
   12.3782    5.4231   20.7777 C   0  0  0  0  0  0  0  0  0  0  0  0
    7.7365    4.6508   21.6987 C   0  0  0  0  0  0  0  0  0  0  0  0
   13.0186   11.0102   18.0020 C   0  0  0  0  0  0  0  0  0  0  0  0
    8.6628    5.7088   21.8871 N   0  0  0  0  0  0  0  0  0  0  0  0
    5.6516    3.5258   21.9140 C   0  0  0  0  0  0  0  0  0  0  0  0
   11.5863    9.6815   19.4539 C   0  0  0  0  0  0  0  0  0  0  0  0
   12.9648    4.1543   20.9205 C   0  0  0  0  0  0  0  0  0  0  0  0
    8.2089    3.6265   20.8929 C   0  0  0  0  0  0  0  0  0  0  0  0
    7.3827    2.5724   20.5432 C   0  0  0  0  0  0  0  0  0  0  0  0
   11.1529    7.2750   20.8025 C   0  0  0  0  0  0  0  0  0  0  0  0
   10.2573    8.3215   20.9827 C   0  0  0  0  0  0  0  0  0  0  0  0
   11.1606    5.9378   21.2366 N   0  0  0  0  0  0  0  0  0  0  0  0
    9.8932   11.6736   19.0677 O   0  0  0  0  0  0  0  0  0  0  0  0
    6.4470    4.5850   22.2321 C   0  0  0  0  0  0  0  0  0  0  0  0
    8.4619    6.9895   22.2968 C   0  0  0  0  0  0  0  0  0  0  0  0
   12.2747    7.5102   20.0420 C   0  0  0  0  0  0  0  0  0  0  0  0
   14.2544    6.2142   19.4191 C   0  0  0  0  0  0  0  0  0  0  0  0
   13.0695    6.3705   20.0375 N   0  0  0  0  0  0  0  0  0  0  0  0
    9.1913    8.0876   21.8361 N   0  0  0  0  0  0  0  0  0  0  0  0
   10.4739    9.4813   20.2889 C   0  0  0  0  0  0  0  0  0  0  0  0
    7.5551    7.1270   23.1200 O   0  0  0  0  0  0  0  0  0  0  0  0
  1 11  4  0
  1 21  4  0
  2  4  1  0
  2  8  1  0
  2 11  1  0
  3 10  4  0
  3 14  4  0
  4  5  1  0
  4 18  2  0
  6 12  1  0
  6 17  4  0
  6 23  4  0
  7  9  1  0
  7 13  4  0
  7 19  4  0
  9 20  1  0
 10 19  4  0
 11 25  4  0
 13 14  4  0
 15 16  4  0
 15 17  4  0
 15 21  4  0
 16 24  1  0
 16 25  4  0
 20 24  1  0
 20 26  2  0
 21 23  4  0
 22 23  1  0
M  END
$$$$

 Created by Python create_sdf_string function

 26 28  0  0  0  0  0  0  0  0999 V2000
   12.4616    8.6700   19.4180 N   0  0  0  0  0  0  0  0  0  0  0  0
   11.8329   10.8148   18.6769 N   0  0  0  0  0  0  0  0  0  0  0  0
    6.1021    2.5564   21.0678 C   0  0  0  0  0  0  0  0  0  0  0  0
   10.9097   11.8051   18.4804 C   0  0  0  0  0  0  0  0  0  0  0  0
   11.2280   12.9135   17.5669 C   0  0  0  0  0  0  0  0  0  0  0  0
   12.3782    5.4231   20.7777 C   0  0  0  0  0  0  0  0  0  0  0  0
    7.7365    4.6508   21.6987 C   0  0  0  0  0  0  0  0  0  0  0  0
   13.0186   11.0102   18.0020 C   0  0  0  0  0  0  0  0  0  0  0  0
    8.6628    5.7088   21.8871 N   0  0  0  0  0  0  0  0  0  0  0  0
    5.6516    3.5258   21.9140 C   0  0  0  0  0  0  0  0  0  0  0  0
   11.5863    9.6815   19.4539 C   0  0  0  0  0  0  0  0  0  0  0  0
   12.9648    4.1543   20.9205 C   0  0  0  0  0  0  0  0  0  0  0  0
    8.2089    3.6265   20.8929 C   0  0  0  0  0  0  0  0  0  0  0  0
    7.3827    2.5724   20.5432 C   0  0  0  0  0  0  0  0  0  0  0  0
   11.1529    7.2750   20.8025 C   0  0  0  0  0  0  0  0  0  0  0  0
   10.2573    8.3215   20.9827 C   0  0  0  0  0  0  0  0  0  0  0  0
   11.1606    5.9378   21.2366 N   0  0  0  0  0  0  0  0  0  0  0  0
    9.8932   11.6736   19.0677 O   0  0  0  0  0  0  0  0  0  0  0  0
    6.4470    4.5850   22.2321 C   0  0  0  0  0  0  0  0  0  0  0  0
    8.4619    6.9895   22.2968 C   0  0  0  0  0  0  0  0  0  0  0  0
   12.2747    7.5102   20.0420 C   0  0  0  0  0  0  0  0  0  0  0  0
   14.2544    6.2142   19.4191 C   0  0  0  0  0  0  0  0  0  0  0  0
   13.0695    6.3705   20.0375 N   0  0  0  0  0  0  0  0  0  0  0  0
    9.1913    8.0876   21.8361 N   0  0  0  0  0  0  0  0  0  0  0  0
   10.4739    9.4813   20.2889 C   0  0  0  0  0  0  0  0  0  0  0  0
    7.5551    7.1270   23.1200 O   0  0  0  0  0  0  0  0  0  0  0  0
  1 11  4  0
  1 21  4  0
  2  4  1  0
  2  8  1  0
  2 11  1  0
  3 10  4  0
  3 14  4  0
  4  5  1  0
  4 18  2  0
  6 12  1  0
  6 17  4  0
  6 23  4  0
  7  9  1  0
  7 13  4  0
  7 19  4  0
  9 20  1  0
 10 19  4  0
 11 25  4  0
 13 14  4  0
 15 16  4  0
 15 17  4  0
 15 21  4  0
 16 24  1  0
 16 25  4  0
 20 24  1  0
 20 26  2  0
 21 23  4  0
 22 23  1  0
M  END
$$$$

 Created by Python create_sdf_string function

 26 28  0  0  0  0  0  0  0  0999 V2000
   12.4616    8.6700   19.4180 N   0  0  0  0  0  0  0  0  0  0  0  0
   11.8329   10.8148   18.6769 N   0  0  0  0  0  0  0  0  0  0  0  0
    6.1021    2.5564   21.0678 C   0  0  0  0  0  0  0  0  0  0  0  0
   10.9097   11.8051   18.4804 C   0  0  0  0  0  0  0  0  0  0  0  0
   11.2280   12.9135   17.5669 C   0  0  0  0  0  0  0  0  0  0  0  0
   12.3782    5.4231   20.7777 C   0  0  0  0  0  0  0  0  0  0  0  0
    7.7365    4.6508   21.6987 C   0  0  0  0  0  0  0  0  0  0  0  0
   13.0186   11.0102   18.0020 C   0  0  0  0  0  0  0  0  0  0  0  0
    8.6628    5.7088   21.8871 N   0  0  0  0  0  0  0  0  0  0  0  0
    5.6516    3.5258   21.9140 C   0  0  0  0  0  0  0  0  0  0  0  0
   11.5863    9.6815   19.4539 C   0  0  0  0  0  0  0  0  0  0  0  0
   12.9648    4.1543   20.9205 C   0  0  0  0  0  0  0  0  0  0  0  0
    8.2089    3.6265   20.8929 C   0  0  0  0  0  0  0  0  0  0  0  0
    7.3827    2.5724   20.5432 C   0  0  0  0  0  0  0  0  0  0  0  0
   11.1529    7.2750   20.8025 C   0  0  0  0  0  0  0  0  0  0  0  0
   10.2573    8.3215   20.9827 C   0  0  0  0  0  0  0  0  0  0  0  0
   11.1606    5.9378   21.2366 N   0  0  0  0  0  0  0  0  0  0  0  0
    9.8932   11.6736   19.0677 O   0  0  0  0  0  0  0  0  0  0  0  0
    6.4470    4.5850   22.2321 C   0  0  0  0  0  0  0  0  0  0  0  0
    8.4619    6.9895   22.2968 C   0  0  0  0  0  0  0  0  0  0  0  0
   12.2747    7.5102   20.0420 C   0  0  0  0  0  0  0  0  0  0  0  0
   14.2544    6.2142   19.4191 C   0  0  0  0  0  0  0  0  0  0  0  0
   13.0695    6.3705   20.0375 N   0  0  0  0  0  0  0  0  0  0  0  0
    9.1913    8.0876   21.8361 N   0  0  0  0  0  0  0  0  0  0  0  0
   10.4739    9.4813   20.2889 C   0  0  0  0  0  0  0  0  0  0  0  0
    7.5551    7.1270   23.1200 O   0  0  0  0  0  0  0  0  0  0  0  0
  1 11  4  0
  1 21  4  0
  2  4  1  0
  2  8  1  0
  2 11  1  0
  3 10  4  0
  3 14  4  0
  4  5  1  0
  4 18  2  0
  6 12  1  0
  6 17  4  0
  6 23  4  0
  7  9  1  0
  7 13  4  0
  7 19  4  0
  9 20  1  0
 10 19  4  0
 11 25  4  0
 13 14  4  0
 15 16  4  0
 15 17  4  0
 15 21  4  0
 16 24  1  0
 16 25  4  0
 20 24  1  0
 20 26  2  0
 21 23  4  0
 22 23  1  0
M  END
$$$$

 Created by Python create_sdf_string function

 26 28  0  0  0  0  0  0  0  0999 V2000
   12.4616    8.6700   19.4180 N   0  0  0  0  0  0  0  0  0  0  0  0
   11.8329   10.8148   18.6769 N   0  0  0  0  0  0  0  0  0  0  0  0
    6.1021    2.5564   21.0678 C   0  0  0  0  0  0  0  0  0  0  0  0
   10.9097   11.8051   18.4804 C   0  0  0  0  0  0  0  0  0  0  0  0
   11.2280   12.9135   17.5669 C   0  0  0  0  0  0  0  0  0  0  0  0
   12.3782    5.4231   20.7777 C   0  0  0  0  0  0  0  0  0  0  0  0
    7.7365    4.6508   21.6987 C   0  0  0  0  0  0  0  0  0  0  0  0
   13.0186   11.0102   18.0020 C   0  0  0  0  0  0  0  0  0  0  0  0
    8.6628    5.7088   21.8871 N   0  0  0  0  0  0  0  0  0  0  0  0
    5.6516    3.5258   21.9140 C   0  0  0  0  0  0  0  0  0  0  0  0
   11.5863    9.6815   19.4539 C   0  0  0  0  0  0  0  0  0  0  0  0
   12.9648    4.1543   20.9205 C   0  0  0  0  0  0  0  0  0  0  0  0
    8.2089    3.6265   20.8929 C   0  0  0  0  0  0  0  0  0  0  0  0
    7.3827    2.5724   20.5432 C   0  0  0  0  0  0  0  0  0  0  0  0
   11.1529    7.2750   20.8025 C   0  0  0  0  0  0  0  0  0  0  0  0
   10.2573    8.3215   20.9827 C   0  0  0  0  0  0  0  0  0  0  0  0
   11.1606    5.9378   21.2366 N   0  0  0  0  0  0  0  0  0  0  0  0
    9.8932   11.6736   19.0677 O   0  0  0  0  0  0  0  0  0  0  0  0
    6.4470    4.5850   22.2321 C   0  0  0  0  0  0  0  0  0  0  0  0
    8.4619    6.9895   22.2968 C   0  0  0  0  0  0  0  0  0  0  0  0
   12.2747    7.5102   20.0420 C   0  0  0  0  0  0  0  0  0  0  0  0
   14.2544    6.2142   19.4191 C   0  0  0  0  0  0  0  0  0  0  0  0
   13.0695    6.3705   20.0375 N   0  0  0  0  0  0  0  0  0  0  0  0
    9.1913    8.0876   21.8361 N   0  0  0  0  0  0  0  0  0  0  0  0
   10.4739    9.4813   20.2889 C   0  0  0  0  0  0  0  0  0  0  0  0
    7.5551    7.1270   23.1200 O   0  0  0  0  0  0  0  0  0  0  0  0
  1 11  4  0
  1 21  4  0
  2  4  1  0
  2  8  1  0
  2 11  1  0
  3 10  4  0
  3 14  4  0
  4  5  1  0
  4 18  2  0
  6 12  1  0
  6 17  4  0
  6 23  4  0
  7  9  1  0
  7 13  4  0
  7 19  4  0
  9 20  1  0
 10 19  4  0
 11 25  4  0
 13 14  4  0
 15 16  4  0
 15 17  4  0
 15 21  4  0
 16 24  1  0
 16 25  4  0
 20 24  1  0
 20 26  2  0
 21 23  4  0
 22 23  1  0
M  END
$$$$

 Created by Python create_sdf_string function

 26 28  0  0  0  0  0  0  0  0999 V2000
   12.4616    8.6700   19.4180 N   0  0  0  0  0  0  0  0  0  0  0  0
   11.8329   10.8148   18.6769 N   0  0  0  0  0  0  0  0  0  0  0  0
    6.1021    2.5564   21.0678 C   0  0  0  0  0  0  0  0  0  0  0  0
   10.9097   11.8051   18.4804 C   0  0  0  0  0  0  0  0  0  0  0  0
   11.2280   12.9135   17.5669 C   0  0  0  0  0  0  0  0  0  0  0  0
   12.3782    5.4231   20.7777 C   0  0  0  0  0  0  0  0  0  0  0  0
    7.7365    4.6508   21.6987 C   0  0  0  0  0  0  0  0  0  0  0  0
   13.0186   11.0102   18.0020 C   0  0  0  0  0  0  0  0  0  0  0  0
    8.6628    5.7088   21.8871 N   0  0  0  0  0  0  0  0  0  0  0  0
    5.6516    3.5258   21.9140 C   0  0  0  0  0  0  0  0  0  0  0  0
   11.5863    9.6815   19.4539 C   0  0  0  0  0  0  0  0  0  0  0  0
   12.9648    4.1543   20.9205 C   0  0  0  0  0  0  0  0  0  0  0  0
    8.2089    3.6265   20.8929 C   0  0  0  0  0  0  0  0  0  0  0  0
    7.3827    2.5724   20.5432 C   0  0  0  0  0  0  0  0  0  0  0  0
   11.1529    7.2750   20.8025 C   0  0  0  0  0  0  0  0  0  0  0  0
   10.2573    8.3215   20.9827 C   0  0  0  0  0  0  0  0  0  0  0  0
   11.1606    5.9378   21.2366 N   0  0  0  0  0  0  0  0  0  0  0  0
    9.8932   11.6736   19.0677 O   0  0  0  0  0  0  0  0  0  0  0  0
    6.4470    4.5850   22.2321 C   0  0  0  0  0  0  0  0  0  0  0  0
    8.4619    6.9895   22.2968 C   0  0  0  0  0  0  0  0  0  0  0  0
   12.2747    7.5102   20.0420 C   0  0  0  0  0  0  0  0  0  0  0  0
   14.2544    6.2142   19.4191 C   0  0  0  0  0  0  0  0  0  0  0  0
   13.0695    6.3705   20.0375 N   0  0  0  0  0  0  0  0  0  0  0  0
    9.1913    8.0876   21.8361 N   0  0  0  0  0  0  0  0  0  0  0  0
   10.4739    9.4813   20.2889 C   0  0  0  0  0  0  0  0  0  0  0  0
    7.5551    7.1270   23.1200 O   0  0  0  0  0  0  0  0  0  0  0  0
  1 11  4  0
  1 21  4  0
  2  4  1  0
  2  8  1  0
  2 11  1  0
  3 10  4  0
  3 14  4  0
  4  5  1  0
  4 18  2  0
  6 12  1  0
  6 17  4  0
  6 23  4  0
  7  9  1  0
  7 13  4  0
  7 19  4  0
  9 20  1  0
 10 19  4  0
 11 25  4  0
 13 14  4  0
 15 16  4  0
 15 17  4  0
 15 21  4  0
 16 24  1  0
 16 25  4  0
 20 24  1  0
 20 26  2  0
 21 23  4  0
 22 23  1  0
M  END
$$$$

 Created by Python create_sdf_string function

 26 28  0  0  0  0  0  0  0  0999 V2000
   12.4616    8.6700   19.4180 N   0  0  0  0  0  0  0  0  0  0  0  0
   11.8329   10.8148   18.6769 N   0  0  0  0  0  0  0  0  0  0  0  0
    6.1021    2.5564   21.0678 C   0  0  0  0  0  0  0  0  0  0  0  0
   10.9097   11.8051   18.4804 C   0  0  0  0  0  0  0  0  0  0  0  0
   11.2280   12.9135   17.5669 C   0  0  0  0  0  0  0  0  0  0  0  0
   12.3782    5.4231   20.7777 C   0  0  0  0  0  0  0  0  0  0  0  0
    7.7365    4.6508   21.6987 C   0  0  0  0  0  0  0  0  0  0  0  0
   13.0186   11.0102   18.0020 C   0  0  0  0  0  0  0  0  0  0  0  0
    8.6628    5.7088   21.8871 N   0  0  0  0  0  0  0  0  0  0  0  0
    5.6516    3.5258   21.9140 C   0  0  0  0  0  0  0  0  0  0  0  0
   11.5863    9.6815   19.4539 C   0  0  0  0  0  0  0  0  0  0  0  0
   12.9648    4.1543   20.9205 C   0  0  0  0  0  0  0  0  0  0  0  0
    8.2089    3.6265   20.8929 C   0  0  0  0  0  0  0  0  0  0  0  0
    7.3827    2.5724   20.5432 C   0  0  0  0  0  0  0  0  0  0  0  0
   11.1529    7.2750   20.8025 C   0  0  0  0  0  0  0  0  0  0  0  0
   10.2573    8.3215   20.9827 C   0  0  0  0  0  0  0  0  0  0  0  0
   11.1606    5.9378   21.2366 N   0  0  0  0  0  0  0  0  0  0  0  0
    9.8932   11.6736   19.0677 O   0  0  0  0  0  0  0  0  0  0  0  0
    6.4470    4.5850   22.2321 C   0  0  0  0  0  0  0  0  0  0  0  0
    8.4619    6.9895   22.2968 C   0  0  0  0  0  0  0  0  0  0  0  0
   12.2747    7.5102   20.0420 C   0  0  0  0  0  0  0  0  0  0  0  0
   14.2544    6.2142   19.4191 C   0  0  0  0  0  0  0  0  0  0  0  0
   13.0695    6.3705   20.0375 N   0  0  0  0  0  0  0  0  0  0  0  0
    9.1913    8.0876   21.8361 N   0  0  0  0  0  0  0  0  0  0  0  0
   10.4739    9.4813   20.2889 C   0  0  0  0  0  0  0  0  0  0  0  0
    7.5551    7.1270   23.1200 O   0  0  0  0  0  0  0  0  0  0  0  0
  1 11  4  0
  1 21  4  0
  2  4  1  0
  2  8  1  0
  2 11  1  0
  3 10  4  0
  3 14  4  0
  4  5  1  0
  4 18  2  0
  6 12  1  0
  6 17  4  0
  6 23  4  0
  7  9  1  0
  7 13  4  0
  7 19  4  0
  9 20  1  0
 10 19  4  0
 11 25  4  0
 13 14  4  0
 15 16  4  0
 15 17  4  0
 15 21  4  0
 16 24  1  0
 16 25  4  0
 20 24  1  0
 20 26  2  0
 21 23  4  0
 22 23  1  0
M  END
$$$$

 Created by Python create_sdf_string function

 26 28  0  0  0  0  0  0  0  0999 V2000
   12.4616    8.6700   19.4180 N   0  0  0  0  0  0  0  0  0  0  0  0
   11.8329   10.8148   18.6769 N   0  0  0  0  0  0  0  0  0  0  0  0
    6.1021    2.5564   21.0678 C   0  0  0  0  0  0  0  0  0  0  0  0
   10.9097   11.8051   18.4804 C   0  0  0  0  0  0  0  0  0  0  0  0
   11.2280   12.9135   17.5669 C   0  0  0  0  0  0  0  0  0  0  0  0
   12.3782    5.4231   20.7777 C   0  0  0  0  0  0  0  0  0  0  0  0
    7.7365    4.6508   21.6987 C   0  0  0  0  0  0  0  0  0  0  0  0
   13.0186   11.0102   18.0020 C   0  0  0  0  0  0  0  0  0  0  0  0
    8.6628    5.7088   21.8871 N   0  0  0  0  0  0  0  0  0  0  0  0
    5.6516    3.5258   21.9140 C   0  0  0  0  0  0  0  0  0  0  0  0
   11.5863    9.6815   19.4539 C   0  0  0  0  0  0  0  0  0  0  0  0
   12.9648    4.1543   20.9205 C   0  0  0  0  0  0  0  0  0  0  0  0
    8.2089    3.6265   20.8929 C   0  0  0  0  0  0  0  0  0  0  0  0
    7.3827    2.5724   20.5432 C   0  0  0  0  0  0  0  0  0  0  0  0
   11.1529    7.2750   20.8025 C   0  0  0  0  0  0  0  0  0  0  0  0
   10.2573    8.3215   20.9827 C   0  0  0  0  0  0  0  0  0  0  0  0
   11.1606    5.9378   21.2366 N   0  0  0  0  0  0  0  0  0  0  0  0
    9.8932   11.6736   19.0677 O   0  0  0  0  0  0  0  0  0  0  0  0
    6.4470    4.5850   22.2321 C   0  0  0  0  0  0  0  0  0  0  0  0
    8.4619    6.9895   22.2968 C   0  0  0  0  0  0  0  0  0  0  0  0
   12.2747    7.5102   20.0420 C   0  0  0  0  0  0  0  0  0  0  0  0
   14.2544    6.2142   19.4191 C   0  0  0  0  0  0  0  0  0  0  0  0
   13.0695    6.3705   20.0375 N   0  0  0  0  0  0  0  0  0  0  0  0
    9.1913    8.0876   21.8361 N   0  0  0  0  0  0  0  0  0  0  0  0
   10.4739    9.4813   20.2889 C   0  0  0  0  0  0  0  0  0  0  0  0
    7.5551    7.1270   23.1200 O   0  0  0  0  0  0  0  0  0  0  0  0
  1 11  4  0
  1 21  4  0
  2  4  1  0
  2  8  1  0
  2 11  1  0
  3 10  4  0
  3 14  4  0
  4  5  1  0
  4 18  2  0
  6 12  1  0
  6 17  4  0
  6 23  4  0
  7  9  1  0
  7 13  4  0
  7 19  4  0
  9 20  1  0
 10 19  4  0
 11 25  4  0
 13 14  4  0
 15 16  4  0
 15 17  4  0
 15 21  4  0
 16 24  1  0
 16 25  4  0
 20 24  1  0
 20 26  2  0
 21 23  4  0
 22 23  1  0
M  END
$$$$

 Created by Python create_sdf_string function

 26 28  0  0  0  0  0  0  0  0999 V2000
   12.4616    8.6700   19.4180 N   0  0  0  0  0  0  0  0  0  0  0  0
   11.8329   10.8148   18.6769 N   0  0  0  0  0  0  0  0  0  0  0  0
    6.1021    2.5564   21.0678 C   0  0  0  0  0  0  0  0  0  0  0  0
   10.9097   11.8051   18.4804 C   0  0  0  0  0  0  0  0  0  0  0  0
   11.2280   12.9135   17.5669 C   0  0  0  0  0  0  0  0  0  0  0  0
   12.3782    5.4231   20.7777 C   0  0  0  0  0  0  0  0  0  0  0  0
    7.7365    4.6508   21.6987 C   0  0  0  0  0  0  0  0  0  0  0  0
   13.0186   11.0102   18.0020 C   0  0  0  0  0  0  0  0  0  0  0  0
    8.6628    5.7088   21.8871 N   0  0  0  0  0  0  0  0  0  0  0  0
    5.6516    3.5258   21.9140 C   0  0  0  0  0  0  0  0  0  0  0  0
   11.5863    9.6815   19.4539 C   0  0  0  0  0  0  0  0  0  0  0  0
   12.9648    4.1543   20.9205 C   0  0  0  0  0  0  0  0  0  0  0  0
    8.2089    3.6265   20.8929 C   0  0  0  0  0  0  0  0  0  0  0  0
    7.3827    2.5724   20.5432 C   0  0  0  0  0  0  0  0  0  0  0  0
   11.1529    7.2750   20.8025 C   0  0  0  0  0  0  0  0  0  0  0  0
   10.2573    8.3215   20.9827 C   0  0  0  0  0  0  0  0  0  0  0  0
   11.1606    5.9378   21.2366 N   0  0  0  0  0  0  0  0  0  0  0  0
    9.8932   11.6736   19.0677 O   0  0  0  0  0  0  0  0  0  0  0  0
    6.4470    4.5850   22.2321 C   0  0  0  0  0  0  0  0  0  0  0  0
    8.4619    6.9895   22.2968 C   0  0  0  0  0  0  0  0  0  0  0  0
   12.2747    7.5102   20.0420 C   0  0  0  0  0  0  0  0  0  0  0  0
   14.2544    6.2142   19.4191 C   0  0  0  0  0  0  0  0  0  0  0  0
   13.0695    6.3705   20.0375 N   0  0  0  0  0  0  0  0  0  0  0  0
    9.1913    8.0876   21.8361 N   0  0  0  0  0  0  0  0  0  0  0  0
   10.4739    9.4813   20.2889 C   0  0  0  0  0  0  0  0  0  0  0  0
    7.5551    7.1270   23.1200 O   0  0  0  0  0  0  0  0  0  0  0  0
  1 11  4  0
  1 21  4  0
  2  4  1  0
  2  8  1  0
  2 11  1  0
  3 10  4  0
  3 14  4  0
  4  5  1  0
  4 18  2  0
  6 12  1  0
  6 17  4  0
  6 23  4  0
  7  9  1  0
  7 13  4  0
  7 19  4  0
  9 20  1  0
 10 19  4  0
 11 25  4  0
 13 14  4  0
 15 16  4  0
 15 17  4  0
 15 21  4  0
 16 24  1  0
 16 25  4  0
 20 24  1  0
 20 26  2  0
 21 23  4  0
 22 23  1  0
M  END
$$$$

 Created by Python create_sdf_string function

 26 28  0  0  0  0  0  0  0  0999 V2000
   12.4616    8.6700   19.4180 N   0  0  0  0  0  0  0  0  0  0  0  0
   11.8329   10.8148   18.6769 N   0  0  0  0  0  0  0  0  0  0  0  0
    6.1021    2.5564   21.0678 C   0  0  0  0  0  0  0  0  0  0  0  0
   10.9097   11.8051   18.4804 C   0  0  0  0  0  0  0  0  0  0  0  0
   11.2280   12.9135   17.5669 C   0  0  0  0  0  0  0  0  0  0  0  0
   12.3782    5.4231   20.7777 C   0  0  0  0  0  0  0  0  0  0  0  0
    7.7365    4.6508   21.6987 C   0  0  0  0  0  0  0  0  0  0  0  0
   13.0186   11.0102   18.0020 C   0  0  0  0  0  0  0  0  0  0  0  0
    8.6628    5.7088   21.8871 N   0  0  0  0  0  0  0  0  0  0  0  0
    5.6516    3.5258   21.9140 C   0  0  0  0  0  0  0  0  0  0  0  0
   11.5863    9.6815   19.4539 C   0  0  0  0  0  0  0  0  0  0  0  0
   12.9648    4.1543   20.9205 C   0  0  0  0  0  0  0  0  0  0  0  0
    8.2089    3.6265   20.8929 C   0  0  0  0  0  0  0  0  0  0  0  0
    7.3827    2.5724   20.5432 C   0  0  0  0  0  0  0  0  0  0  0  0
   11.1529    7.2750   20.8025 C   0  0  0  0  0  0  0  0  0  0  0  0
   10.2573    8.3215   20.9827 C   0  0  0  0  0  0  0  0  0  0  0  0
   11.1606    5.9378   21.2366 N   0  0  0  0  0  0  0  0  0  0  0  0
    9.8932   11.6736   19.0677 O   0  0  0  0  0  0  0  0  0  0  0  0
    6.4470    4.5850   22.2321 C   0  0  0  0  0  0  0  0  0  0  0  0
    8.4619    6.9895   22.2968 C   0  0  0  0  0  0  0  0  0  0  0  0
   12.2747    7.5102   20.0420 C   0  0  0  0  0  0  0  0  0  0  0  0
   14.2544    6.2142   19.4191 C   0  0  0  0  0  0  0  0  0  0  0  0
   13.0695    6.3705   20.0375 N   0  0  0  0  0  0  0  0  0  0  0  0
    9.1913    8.0876   21.8361 N   0  0  0  0  0  0  0  0  0  0  0  0
   10.4739    9.4813   20.2889 C   0  0  0  0  0  0  0  0  0  0  0  0
    7.5551    7.1270   23.1200 O   0  0  0  0  0  0  0  0  0  0  0  0
  1 11  4  0
  1 21  4  0
  2  4  1  0
  2  8  1  0
  2 11  1  0
  3 10  4  0
  3 14  4  0
  4  5  1  0
  4 18  2  0
  6 12  1  0
  6 17  4  0
  6 23  4  0
  7  9  1  0
  7 13  4  0
  7 19  4  0
  9 20  1  0
 10 19  4  0
 11 25  4  0
 13 14  4  0
 15 16  4  0
 15 17  4  0
 15 21  4  0
 16 24  1  0
 16 25  4  0
 20 24  1  0
 20 26  2  0
 21 23  4  0
 22 23  1  0
M  END
$$$$

 Created by Python create_sdf_string function

 26 28  0  0  0  0  0  0  0  0999 V2000
   12.4616    8.6700   19.4180 N   0  0  0  0  0  0  0  0  0  0  0  0
   11.8329   10.8148   18.6769 N   0  0  0  0  0  0  0  0  0  0  0  0
    6.1021    2.5564   21.0678 C   0  0  0  0  0  0  0  0  0  0  0  0
   10.9097   11.8051   18.4804 C   0  0  0  0  0  0  0  0  0  0  0  0
   11.2280   12.9135   17.5669 C   0  0  0  0  0  0  0  0  0  0  0  0
   12.3782    5.4231   20.7777 C   0  0  0  0  0  0  0  0  0  0  0  0
    7.7365    4.6508   21.6987 C   0  0  0  0  0  0  0  0  0  0  0  0
   13.0186   11.0102   18.0020 C   0  0  0  0  0  0  0  0  0  0  0  0
    8.6628    5.7088   21.8871 N   0  0  0  0  0  0  0  0  0  0  0  0
    5.6516    3.5258   21.9140 C   0  0  0  0  0  0  0  0  0  0  0  0
   11.5863    9.6815   19.4539 C   0  0  0  0  0  0  0  0  0  0  0  0
   12.9648    4.1543   20.9205 C   0  0  0  0  0  0  0  0  0  0  0  0
    8.2089    3.6265   20.8929 C   0  0  0  0  0  0  0  0  0  0  0  0
    7.3827    2.5724   20.5432 C   0  0  0  0  0  0  0  0  0  0  0  0
   11.1529    7.2750   20.8025 C   0  0  0  0  0  0  0  0  0  0  0  0
   10.2573    8.3215   20.9827 C   0  0  0  0  0  0  0  0  0  0  0  0
   11.1606    5.9378   21.2366 N   0  0  0  0  0  0  0  0  0  0  0  0
    9.8932   11.6736   19.0677 O   0  0  0  0  0  0  0  0  0  0  0  0
    6.4470    4.5850   22.2321 C   0  0  0  0  0  0  0  0  0  0  0  0
    8.4619    6.9895   22.2968 C   0  0  0  0  0  0  0  0  0  0  0  0
   12.2747    7.5102   20.0420 C   0  0  0  0  0  0  0  0  0  0  0  0
   14.2544    6.2142   19.4191 C   0  0  0  0  0  0  0  0  0  0  0  0
   13.0695    6.3705   20.0375 N   0  0  0  0  0  0  0  0  0  0  0  0
    9.1913    8.0876   21.8361 N   0  0  0  0  0  0  0  0  0  0  0  0
   10.4739    9.4813   20.2889 C   0  0  0  0  0  0  0  0  0  0  0  0
    7.5551    7.1270   23.1200 O   0  0  0  0  0  0  0  0  0  0  0  0
  1 11  4  0
  1 21  4  0
  2  4  1  0
  2  8  1  0
  2 11  1  0
  3 10  4  0
  3 14  4  0
  4  5  1  0
  4 18  2  0
  6 12  1  0
  6 17  4  0
  6 23  4  0
  7  9  1  0
  7 13  4  0
  7 19  4  0
  9 20  1  0
 10 19  4  0
 11 25  4  0
 13 14  4  0
 15 16  4  0
 15 17  4  0
 15 21  4  0
 16 24  1  0
 16 25  4  0
 20 24  1  0
 20 26  2  0
 21 23  4  0
 22 23  1  0
M  END
$$$$

 Created by Python create_sdf_string function

 26 28  0  0  0  0  0  0  0  0999 V2000
   12.4616    8.6700   19.4180 N   0  0  0  0  0  0  0  0  0  0  0  0
   11.8329   10.8148   18.6769 N   0  0  0  0  0  0  0  0  0  0  0  0
    6.1021    2.5564   21.0678 C   0  0  0  0  0  0  0  0  0  0  0  0
   10.9097   11.8051   18.4804 C   0  0  0  0  0  0  0  0  0  0  0  0
   11.2280   12.9135   17.5669 C   0  0  0  0  0  0  0  0  0  0  0  0
   12.3782    5.4231   20.7777 C   0  0  0  0  0  0  0  0  0  0  0  0
    7.7365    4.6508   21.6987 C   0  0  0  0  0  0  0  0  0  0  0  0
   13.0186   11.0102   18.0020 C   0  0  0  0  0  0  0  0  0  0  0  0
    8.6628    5.7088   21.8871 N   0  0  0  0  0  0  0  0  0  0  0  0
    5.6516    3.5258   21.9140 C   0  0  0  0  0  0  0  0  0  0  0  0
   11.5863    9.6815   19.4539 C   0  0  0  0  0  0  0  0  0  0  0  0
   12.9648    4.1543   20.9205 C   0  0  0  0  0  0  0  0  0  0  0  0
    8.2089    3.6265   20.8929 C   0  0  0  0  0  0  0  0  0  0  0  0
    7.3827    2.5724   20.5432 C   0  0  0  0  0  0  0  0  0  0  0  0
   11.1529    7.2750   20.8025 C   0  0  0  0  0  0  0  0  0  0  0  0
   10.2573    8.3215   20.9827 C   0  0  0  0  0  0  0  0  0  0  0  0
   11.1606    5.9378   21.2366 N   0  0  0  0  0  0  0  0  0  0  0  0
    9.8932   11.6736   19.0677 O   0  0  0  0  0  0  0  0  0  0  0  0
    6.4470    4.5850   22.2321 C   0  0  0  0  0  0  0  0  0  0  0  0
    8.4619    6.9895   22.2968 C   0  0  0  0  0  0  0  0  0  0  0  0
   12.2747    7.5102   20.0420 C   0  0  0  0  0  0  0  0  0  0  0  0
   14.2544    6.2142   19.4191 C   0  0  0  0  0  0  0  0  0  0  0  0
   13.0695    6.3705   20.0375 N   0  0  0  0  0  0  0  0  0  0  0  0
    9.1913    8.0876   21.8361 N   0  0  0  0  0  0  0  0  0  0  0  0
   10.4739    9.4813   20.2889 C   0  0  0  0  0  0  0  0  0  0  0  0
    7.5551    7.1270   23.1200 O   0  0  0  0  0  0  0  0  0  0  0  0
  1 11  4  0
  1 21  4  0
  2  4  1  0
  2  8  1  0
  2 11  1  0
  3 10  4  0
  3 14  4  0
  4  5  1  0
  4 18  2  0
  6 12  1  0
  6 17  4  0
  6 23  4  0
  7  9  1  0
  7 13  4  0
  7 19  4  0
  9 20  1  0
 10 19  4  0
 11 25  4  0
 13 14  4  0
 15 16  4  0
 15 17  4  0
 15 21  4  0
 16 24  1  0
 16 25  4  0
 20 24  1  0
 20 26  2  0
 21 23  4  0
 22 23  1  0
M  END
$$$$

 Created by Python create_sdf_string function

 26 28  0  0  0  0  0  0  0  0999 V2000
   12.4616    8.6700   19.4180 N   0  0  0  0  0  0  0  0  0  0  0  0
   11.8329   10.8148   18.6769 N   0  0  0  0  0  0  0  0  0  0  0  0
    6.1021    2.5564   21.0678 C   0  0  0  0  0  0  0  0  0  0  0  0
   10.9097   11.8051   18.4804 C   0  0  0  0  0  0  0  0  0  0  0  0
   11.2280   12.9135   17.5669 C   0  0  0  0  0  0  0  0  0  0  0  0
   12.3782    5.4231   20.7777 C   0  0  0  0  0  0  0  0  0  0  0  0
    7.7365    4.6508   21.6987 C   0  0  0  0  0  0  0  0  0  0  0  0
   13.0186   11.0102   18.0020 C   0  0  0  0  0  0  0  0  0  0  0  0
    8.6628    5.7088   21.8871 N   0  0  0  0  0  0  0  0  0  0  0  0
    5.6516    3.5258   21.9140 C   0  0  0  0  0  0  0  0  0  0  0  0
   11.5863    9.6815   19.4539 C   0  0  0  0  0  0  0  0  0  0  0  0
   12.9648    4.1543   20.9205 C   0  0  0  0  0  0  0  0  0  0  0  0
    8.2089    3.6265   20.8929 C   0  0  0  0  0  0  0  0  0  0  0  0
    7.3827    2.5724   20.5432 C   0  0  0  0  0  0  0  0  0  0  0  0
   11.1529    7.2750   20.8025 C   0  0  0  0  0  0  0  0  0  0  0  0
   10.2573    8.3215   20.9827 C   0  0  0  0  0  0  0  0  0  0  0  0
   11.1606    5.9378   21.2366 N   0  0  0  0  0  0  0  0  0  0  0  0
    9.8932   11.6736   19.0677 O   0  0  0  0  0  0  0  0  0  0  0  0
    6.4470    4.5850   22.2321 C   0  0  0  0  0  0  0  0  0  0  0  0
    8.4619    6.9895   22.2968 C   0  0  0  0  0  0  0  0  0  0  0  0
   12.2747    7.5102   20.0420 C   0  0  0  0  0  0  0  0  0  0  0  0
   14.2544    6.2142   19.4191 C   0  0  0  0  0  0  0  0  0  0  0  0
   13.0695    6.3705   20.0375 N   0  0  0  0  0  0  0  0  0  0  0  0
    9.1913    8.0876   21.8361 N   0  0  0  0  0  0  0  0  0  0  0  0
   10.4739    9.4813   20.2889 C   0  0  0  0  0  0  0  0  0  0  0  0
    7.5551    7.1270   23.1200 O   0  0  0  0  0  0  0  0  0  0  0  0
  1 11  4  0
  1 21  4  0
  2  4  1  0
  2  8  1  0
  2 11  1  0
  3 10  4  0
  3 14  4  0
  4  5  1  0
  4 18  2  0
  6 12  1  0
  6 17  4  0
  6 23  4  0
  7  9  1  0
  7 13  4  0
  7 19  4  0
  9 20  1  0
 10 19  4  0
 11 25  4  0
 13 14  4  0
 15 16  4  0
 15 17  4  0
 15 21  4  0
 16 24  1  0
 16 25  4  0
 20 24  1  0
 20 26  2  0
 21 23  4  0
 22 23  1  0
M  END
$$$$

 Created by Python create_sdf_string function

 26 28  0  0  0  0  0  0  0  0999 V2000
   12.4616    8.6700   19.4180 N   0  0  0  0  0  0  0  0  0  0  0  0
   11.8329   10.8148   18.6769 N   0  0  0  0  0  0  0  0  0  0  0  0
    6.1021    2.5564   21.0678 C   0  0  0  0  0  0  0  0  0  0  0  0
   10.9097   11.8051   18.4804 C   0  0  0  0  0  0  0  0  0  0  0  0
   11.2280   12.9135   17.5669 C   0  0  0  0  0  0  0  0  0  0  0  0
   12.3782    5.4231   20.7777 C   0  0  0  0  0  0  0  0  0  0  0  0
    7.7365    4.6508   21.6987 C   0  0  0  0  0  0  0  0  0  0  0  0
   13.0186   11.0102   18.0020 C   0  0  0  0  0  0  0  0  0  0  0  0
    8.6628    5.7088   21.8871 N   0  0  0  0  0  0  0  0  0  0  0  0
    5.6516    3.5258   21.9140 C   0  0  0  0  0  0  0  0  0  0  0  0
   11.5863    9.6815   19.4539 C   0  0  0  0  0  0  0  0  0  0  0  0
   12.9648    4.1543   20.9205 C   0  0  0  0  0  0  0  0  0  0  0  0
    8.2089    3.6265   20.8929 C   0  0  0  0  0  0  0  0  0  0  0  0
    7.3827    2.5724   20.5432 C   0  0  0  0  0  0  0  0  0  0  0  0
   11.1529    7.2750   20.8025 C   0  0  0  0  0  0  0  0  0  0  0  0
   10.2573    8.3215   20.9827 C   0  0  0  0  0  0  0  0  0  0  0  0
   11.1606    5.9378   21.2366 N   0  0  0  0  0  0  0  0  0  0  0  0
    9.8932   11.6736   19.0677 O   0  0  0  0  0  0  0  0  0  0  0  0
    6.4470    4.5850   22.2321 C   0  0  0  0  0  0  0  0  0  0  0  0
    8.4619    6.9895   22.2968 C   0  0  0  0  0  0  0  0  0  0  0  0
   12.2747    7.5102   20.0420 C   0  0  0  0  0  0  0  0  0  0  0  0
   14.2544    6.2142   19.4191 C   0  0  0  0  0  0  0  0  0  0  0  0
   13.0695    6.3705   20.0375 N   0  0  0  0  0  0  0  0  0  0  0  0
    9.1913    8.0876   21.8361 N   0  0  0  0  0  0  0  0  0  0  0  0
   10.4739    9.4813   20.2889 C   0  0  0  0  0  0  0  0  0  0  0  0
    7.5551    7.1270   23.1200 O   0  0  0  0  0  0  0  0  0  0  0  0
  1 11  4  0
  1 21  4  0
  2  4  1  0
  2  8  1  0
  2 11  1  0
  3 10  4  0
  3 14  4  0
  4  5  1  0
  4 18  2  0
  6 12  1  0
  6 17  4  0
  6 23  4  0
  7  9  1  0
  7 13  4  0
  7 19  4  0
  9 20  1  0
 10 19  4  0
 11 25  4  0
 13 14  4  0
 15 16  4  0
 15 17  4  0
 15 21  4  0
 16 24  1  0
 16 25  4  0
 20 24  1  0
 20 26  2  0
 21 23  4  0
 22 23  1  0
M  END
$$$$

 Created by Python create_sdf_string function

 26 28  0  0  0  0  0  0  0  0999 V2000
   12.4616    8.6700   19.4180 N   0  0  0  0  0  0  0  0  0  0  0  0
   11.8329   10.8148   18.6769 N   0  0  0  0  0  0  0  0  0  0  0  0
    6.1021    2.5564   21.0678 C   0  0  0  0  0  0  0  0  0  0  0  0
   10.9097   11.8051   18.4804 C   0  0  0  0  0  0  0  0  0  0  0  0
   11.2280   12.9135   17.5669 C   0  0  0  0  0  0  0  0  0  0  0  0
   12.3782    5.4231   20.7777 C   0  0  0  0  0  0  0  0  0  0  0  0
    7.7365    4.6508   21.6987 C   0  0  0  0  0  0  0  0  0  0  0  0
   13.0186   11.0102   18.0020 C   0  0  0  0  0  0  0  0  0  0  0  0
    8.6628    5.7088   21.8871 N   0  0  0  0  0  0  0  0  0  0  0  0
    5.6516    3.5258   21.9140 C   0  0  0  0  0  0  0  0  0  0  0  0
   11.5863    9.6815   19.4539 C   0  0  0  0  0  0  0  0  0  0  0  0
   12.9648    4.1543   20.9205 C   0  0  0  0  0  0  0  0  0  0  0  0
    8.2089    3.6265   20.8929 C   0  0  0  0  0  0  0  0  0  0  0  0
    7.3827    2.5724   20.5432 C   0  0  0  0  0  0  0  0  0  0  0  0
   11.1529    7.2750   20.8025 C   0  0  0  0  0  0  0  0  0  0  0  0
   10.2573    8.3215   20.9827 C   0  0  0  0  0  0  0  0  0  0  0  0
   11.1606    5.9378   21.2366 N   0  0  0  0  0  0  0  0  0  0  0  0
    9.8932   11.6736   19.0677 O   0  0  0  0  0  0  0  0  0  0  0  0
    6.4470    4.5850   22.2321 C   0  0  0  0  0  0  0  0  0  0  0  0
    8.4619    6.9895   22.2968 C   0  0  0  0  0  0  0  0  0  0  0  0
   12.2747    7.5102   20.0420 C   0  0  0  0  0  0  0  0  0  0  0  0
   14.2544    6.2142   19.4191 C   0  0  0  0  0  0  0  0  0  0  0  0
   13.0695    6.3705   20.0375 N   0  0  0  0  0  0  0  0  0  0  0  0
    9.1913    8.0876   21.8361 N   0  0  0  0  0  0  0  0  0  0  0  0
   10.4739    9.4813   20.2889 C   0  0  0  0  0  0  0  0  0  0  0  0
    7.5551    7.1270   23.1200 O   0  0  0  0  0  0  0  0  0  0  0  0
  1 11  4  0
  1 21  4  0
  2  4  1  0
  2  8  1  0
  2 11  1  0
  3 10  4  0
  3 14  4  0
  4  5  1  0
  4 18  2  0
  6 12  1  0
  6 17  4  0
  6 23  4  0
  7  9  1  0
  7 13  4  0
  7 19  4  0
  9 20  1  0
 10 19  4  0
 11 25  4  0
 13 14  4  0
 15 16  4  0
 15 17  4  0
 15 21  4  0
 16 24  1  0
 16 25  4  0
 20 24  1  0
 20 26  2  0
 21 23  4  0
 22 23  1  0
M  END
$$$$

 Created by Python create_sdf_string function

 26 28  0  0  0  0  0  0  0  0999 V2000
   12.4616    8.6700   19.4180 N   0  0  0  0  0  0  0  0  0  0  0  0
   11.8329   10.8148   18.6769 N   0  0  0  0  0  0  0  0  0  0  0  0
    6.1021    2.5564   21.0678 C   0  0  0  0  0  0  0  0  0  0  0  0
   10.9097   11.8051   18.4804 C   0  0  0  0  0  0  0  0  0  0  0  0
   11.2280   12.9135   17.5669 C   0  0  0  0  0  0  0  0  0  0  0  0
   12.3782    5.4231   20.7777 C   0  0  0  0  0  0  0  0  0  0  0  0
    7.7365    4.6508   21.6987 C   0  0  0  0  0  0  0  0  0  0  0  0
   13.0186   11.0102   18.0020 C   0  0  0  0  0  0  0  0  0  0  0  0
    8.6628    5.7088   21.8871 N   0  0  0  0  0  0  0  0  0  0  0  0
    5.6516    3.5258   21.9140 C   0  0  0  0  0  0  0  0  0  0  0  0
   11.5863    9.6815   19.4539 C   0  0  0  0  0  0  0  0  0  0  0  0
   12.9648    4.1543   20.9205 C   0  0  0  0  0  0  0  0  0  0  0  0
    8.2089    3.6265   20.8929 C   0  0  0  0  0  0  0  0  0  0  0  0
    7.3827    2.5724   20.5432 C   0  0  0  0  0  0  0  0  0  0  0  0
   11.1529    7.2750   20.8025 C   0  0  0  0  0  0  0  0  0  0  0  0
   10.2573    8.3215   20.9827 C   0  0  0  0  0  0  0  0  0  0  0  0
   11.1606    5.9378   21.2366 N   0  0  0  0  0  0  0  0  0  0  0  0
    9.8932   11.6736   19.0677 O   0  0  0  0  0  0  0  0  0  0  0  0
    6.4470    4.5850   22.2321 C   0  0  0  0  0  0  0  0  0  0  0  0
    8.4619    6.9895   22.2968 C   0  0  0  0  0  0  0  0  0  0  0  0
   12.2747    7.5102   20.0420 C   0  0  0  0  0  0  0  0  0  0  0  0
   14.2544    6.2142   19.4191 C   0  0  0  0  0  0  0  0  0  0  0  0
   13.0695    6.3705   20.0375 N   0  0  0  0  0  0  0  0  0  0  0  0
    9.1913    8.0876   21.8361 N   0  0  0  0  0  0  0  0  0  0  0  0
   10.4739    9.4813   20.2889 C   0  0  0  0  0  0  0  0  0  0  0  0
    7.5551    7.1270   23.1200 O   0  0  0  0  0  0  0  0  0  0  0  0
  1 11  4  0
  1 21  4  0
  2  4  1  0
  2  8  1  0
  2 11  1  0
  3 10  4  0
  3 14  4  0
  4  5  1  0
  4 18  2  0
  6 12  1  0
  6 17  4  0
  6 23  4  0
  7  9  1  0
  7 13  4  0
  7 19  4  0
  9 20  1  0
 10 19  4  0
 11 25  4  0
 13 14  4  0
 15 16  4  0
 15 17  4  0
 15 21  4  0
 16 24  1  0
 16 25  4  0
 20 24  1  0
 20 26  2  0
 21 23  4  0
 22 23  1  0
M  END
$$$$

 Created by Python create_sdf_string function

 26 28  0  0  0  0  0  0  0  0999 V2000
   12.4616    8.6700   19.4180 N   0  0  0  0  0  0  0  0  0  0  0  0
   11.8329   10.8148   18.6769 N   0  0  0  0  0  0  0  0  0  0  0  0
    6.1021    2.5564   21.0678 C   0  0  0  0  0  0  0  0  0  0  0  0
   10.9097   11.8051   18.4804 C   0  0  0  0  0  0  0  0  0  0  0  0
   11.2280   12.9135   17.5669 C   0  0  0  0  0  0  0  0  0  0  0  0
   12.3782    5.4231   20.7777 C   0  0  0  0  0  0  0  0  0  0  0  0
    7.7365    4.6508   21.6987 C   0  0  0  0  0  0  0  0  0  0  0  0
   13.0186   11.0102   18.0020 C   0  0  0  0  0  0  0  0  0  0  0  0
    8.6628    5.7088   21.8871 N   0  0  0  0  0  0  0  0  0  0  0  0
    5.6516    3.5258   21.9140 C   0  0  0  0  0  0  0  0  0  0  0  0
   11.5863    9.6815   19.4539 C   0  0  0  0  0  0  0  0  0  0  0  0
   12.9648    4.1543   20.9205 C   0  0  0  0  0  0  0  0  0  0  0  0
    8.2089    3.6265   20.8929 C   0  0  0  0  0  0  0  0  0  0  0  0
    7.3827    2.5724   20.5432 C   0  0  0  0  0  0  0  0  0  0  0  0
   11.1529    7.2750   20.8025 C   0  0  0  0  0  0  0  0  0  0  0  0
   10.2573    8.3215   20.9827 C   0  0  0  0  0  0  0  0  0  0  0  0
   11.1606    5.9378   21.2366 N   0  0  0  0  0  0  0  0  0  0  0  0
    9.8932   11.6736   19.0677 O   0  0  0  0  0  0  0  0  0  0  0  0
    6.4470    4.5850   22.2321 C   0  0  0  0  0  0  0  0  0  0  0  0
    8.4619    6.9895   22.2968 C   0  0  0  0  0  0  0  0  0  0  0  0
   12.2747    7.5102   20.0420 C   0  0  0  0  0  0  0  0  0  0  0  0
   14.2544    6.2142   19.4191 C   0  0  0  0  0  0  0  0  0  0  0  0
   13.0695    6.3705   20.0375 N   0  0  0  0  0  0  0  0  0  0  0  0
    9.1913    8.0876   21.8361 N   0  0  0  0  0  0  0  0  0  0  0  0
   10.4739    9.4813   20.2889 C   0  0  0  0  0  0  0  0  0  0  0  0
    7.5551    7.1270   23.1200 O   0  0  0  0  0  0  0  0  0  0  0  0
  1 11  4  0
  1 21  4  0
  2  4  1  0
  2  8  1  0
  2 11  1  0
  3 10  4  0
  3 14  4  0
  4  5  1  0
  4 18  2  0
  6 12  1  0
  6 17  4  0
  6 23  4  0
  7  9  1  0
  7 13  4  0
  7 19  4  0
  9 20  1  0
 10 19  4  0
 11 25  4  0
 13 14  4  0
 15 16  4  0
 15 17  4  0
 15 21  4  0
 16 24  1  0
 16 25  4  0
 20 24  1  0
 20 26  2  0
 21 23  4  0
 22 23  1  0
M  END
$$$$

 Created by Python create_sdf_string function

 26 28  0  0  0  0  0  0  0  0999 V2000
   12.4616    8.6700   19.4180 N   0  0  0  0  0  0  0  0  0  0  0  0
   11.8329   10.8148   18.6769 N   0  0  0  0  0  0  0  0  0  0  0  0
    6.1021    2.5564   21.0678 C   0  0  0  0  0  0  0  0  0  0  0  0
   10.9097   11.8051   18.4804 C   0  0  0  0  0  0  0  0  0  0  0  0
   11.2280   12.9135   17.5669 C   0  0  0  0  0  0  0  0  0  0  0  0
   12.3782    5.4231   20.7777 C   0  0  0  0  0  0  0  0  0  0  0  0
    7.7365    4.6508   21.6987 C   0  0  0  0  0  0  0  0  0  0  0  0
   13.0186   11.0102   18.0020 C   0  0  0  0  0  0  0  0  0  0  0  0
    8.6628    5.7088   21.8871 N   0  0  0  0  0  0  0  0  0  0  0  0
    5.6516    3.5258   21.9140 C   0  0  0  0  0  0  0  0  0  0  0  0
   11.5863    9.6815   19.4539 C   0  0  0  0  0  0  0  0  0  0  0  0
   12.9648    4.1543   20.9205 C   0  0  0  0  0  0  0  0  0  0  0  0
    8.2089    3.6265   20.8929 C   0  0  0  0  0  0  0  0  0  0  0  0
    7.3827    2.5724   20.5432 C   0  0  0  0  0  0  0  0  0  0  0  0
   11.1529    7.2750   20.8025 C   0  0  0  0  0  0  0  0  0  0  0  0
   10.2573    8.3215   20.9827 C   0  0  0  0  0  0  0  0  0  0  0  0
   11.1606    5.9378   21.2366 N   0  0  0  0  0  0  0  0  0  0  0  0
    9.8932   11.6736   19.0677 O   0  0  0  0  0  0  0  0  0  0  0  0
    6.4470    4.5850   22.2321 C   0  0  0  0  0  0  0  0  0  0  0  0
    8.4619    6.9895   22.2968 C   0  0  0  0  0  0  0  0  0  0  0  0
   12.2747    7.5102   20.0420 C   0  0  0  0  0  0  0  0  0  0  0  0
   14.2544    6.2142   19.4191 C   0  0  0  0  0  0  0  0  0  0  0  0
   13.0695    6.3705   20.0375 N   0  0  0  0  0  0  0  0  0  0  0  0
    9.1913    8.0876   21.8361 N   0  0  0  0  0  0  0  0  0  0  0  0
   10.4739    9.4813   20.2889 C   0  0  0  0  0  0  0  0  0  0  0  0
    7.5551    7.1270   23.1200 O   0  0  0  0  0  0  0  0  0  0  0  0
  1 11  4  0
  1 21  4  0
  2  4  1  0
  2  8  1  0
  2 11  1  0
  3 10  4  0
  3 14  4  0
  4  5  1  0
  4 18  2  0
  6 12  1  0
  6 17  4  0
  6 23  4  0
  7  9  1  0
  7 13  4  0
  7 19  4  0
  9 20  1  0
 10 19  4  0
 11 25  4  0
 13 14  4  0
 15 16  4  0
 15 17  4  0
 15 21  4  0
 16 24  1  0
 16 25  4  0
 20 24  1  0
 20 26  2  0
 21 23  4  0
 22 23  1  0
M  END
$$$$

 Created by Python create_sdf_string function

 26 28  0  0  0  0  0  0  0  0999 V2000
   12.4616    8.6700   19.4180 N   0  0  0  0  0  0  0  0  0  0  0  0
   11.8329   10.8148   18.6769 N   0  0  0  0  0  0  0  0  0  0  0  0
    6.1021    2.5564   21.0678 C   0  0  0  0  0  0  0  0  0  0  0  0
   10.9097   11.8051   18.4804 C   0  0  0  0  0  0  0  0  0  0  0  0
   11.2280   12.9135   17.5669 C   0  0  0  0  0  0  0  0  0  0  0  0
   12.3782    5.4231   20.7777 C   0  0  0  0  0  0  0  0  0  0  0  0
    7.7365    4.6508   21.6987 C   0  0  0  0  0  0  0  0  0  0  0  0
   13.0186   11.0102   18.0020 C   0  0  0  0  0  0  0  0  0  0  0  0
    8.6628    5.7088   21.8871 N   0  0  0  0  0  0  0  0  0  0  0  0
    5.6516    3.5258   21.9140 C   0  0  0  0  0  0  0  0  0  0  0  0
   11.5863    9.6815   19.4539 C   0  0  0  0  0  0  0  0  0  0  0  0
   12.9648    4.1543   20.9205 C   0  0  0  0  0  0  0  0  0  0  0  0
    8.2089    3.6265   20.8929 C   0  0  0  0  0  0  0  0  0  0  0  0
    7.3827    2.5724   20.5432 C   0  0  0  0  0  0  0  0  0  0  0  0
   11.1529    7.2750   20.8025 C   0  0  0  0  0  0  0  0  0  0  0  0
   10.2573    8.3215   20.9827 C   0  0  0  0  0  0  0  0  0  0  0  0
   11.1606    5.9378   21.2366 N   0  0  0  0  0  0  0  0  0  0  0  0
    9.8932   11.6736   19.0677 O   0  0  0  0  0  0  0  0  0  0  0  0
    6.4470    4.5850   22.2321 C   0  0  0  0  0  0  0  0  0  0  0  0
    8.4619    6.9895   22.2968 C   0  0  0  0  0  0  0  0  0  0  0  0
   12.2747    7.5102   20.0420 C   0  0  0  0  0  0  0  0  0  0  0  0
   14.2544    6.2142   19.4191 C   0  0  0  0  0  0  0  0  0  0  0  0
   13.0695    6.3705   20.0375 N   0  0  0  0  0  0  0  0  0  0  0  0
    9.1913    8.0876   21.8361 N   0  0  0  0  0  0  0  0  0  0  0  0
   10.4739    9.4813   20.2889 C   0  0  0  0  0  0  0  0  0  0  0  0
    7.5551    7.1270   23.1200 O   0  0  0  0  0  0  0  0  0  0  0  0
  1 11  4  0
  1 21  4  0
  2  4  1  0
  2  8  1  0
  2 11  1  0
  3 10  4  0
  3 14  4  0
  4  5  1  0
  4 18  2  0
  6 12  1  0
  6 17  4  0
  6 23  4  0
  7  9  1  0
  7 13  4  0
  7 19  4  0
  9 20  1  0
 10 19  4  0
 11 25  4  0
 13 14  4  0
 15 16  4  0
 15 17  4  0
 15 21  4  0
 16 24  1  0
 16 25  4  0
 20 24  1  0
 20 26  2  0
 21 23  4  0
 22 23  1  0
M  END
$$$$

 Created by Python create_sdf_string function

 26 28  0  0  0  0  0  0  0  0999 V2000
   12.4616    8.6700   19.4180 N   0  0  0  0  0  0  0  0  0  0  0  0
   11.8329   10.8148   18.6769 N   0  0  0  0  0  0  0  0  0  0  0  0
    6.1021    2.5564   21.0678 C   0  0  0  0  0  0  0  0  0  0  0  0
   10.9097   11.8051   18.4804 C   0  0  0  0  0  0  0  0  0  0  0  0
   11.2280   12.9135   17.5669 C   0  0  0  0  0  0  0  0  0  0  0  0
   12.3782    5.4231   20.7777 C   0  0  0  0  0  0  0  0  0  0  0  0
    7.7365    4.6508   21.6987 C   0  0  0  0  0  0  0  0  0  0  0  0
   13.0186   11.0102   18.0020 C   0  0  0  0  0  0  0  0  0  0  0  0
    8.6628    5.7088   21.8871 N   0  0  0  0  0  0  0  0  0  0  0  0
    5.6516    3.5258   21.9140 C   0  0  0  0  0  0  0  0  0  0  0  0
   11.5863    9.6815   19.4539 C   0  0  0  0  0  0  0  0  0  0  0  0
   12.9648    4.1543   20.9205 C   0  0  0  0  0  0  0  0  0  0  0  0
    8.2089    3.6265   20.8929 C   0  0  0  0  0  0  0  0  0  0  0  0
    7.3827    2.5724   20.5432 C   0  0  0  0  0  0  0  0  0  0  0  0
   11.1529    7.2750   20.8025 C   0  0  0  0  0  0  0  0  0  0  0  0
   10.2573    8.3215   20.9827 C   0  0  0  0  0  0  0  0  0  0  0  0
   11.1606    5.9378   21.2366 N   0  0  0  0  0  0  0  0  0  0  0  0
    9.8932   11.6736   19.0677 O   0  0  0  0  0  0  0  0  0  0  0  0
    6.4470    4.5850   22.2321 C   0  0  0  0  0  0  0  0  0  0  0  0
    8.4619    6.9895   22.2968 C   0  0  0  0  0  0  0  0  0  0  0  0
   12.2747    7.5102   20.0420 C   0  0  0  0  0  0  0  0  0  0  0  0
   14.2544    6.2142   19.4191 C   0  0  0  0  0  0  0  0  0  0  0  0
   13.0695    6.3705   20.0375 N   0  0  0  0  0  0  0  0  0  0  0  0
    9.1913    8.0876   21.8361 N   0  0  0  0  0  0  0  0  0  0  0  0
   10.4739    9.4813   20.2889 C   0  0  0  0  0  0  0  0  0  0  0  0
    7.5551    7.1270   23.1200 O   0  0  0  0  0  0  0  0  0  0  0  0
  1 11  4  0
  1 21  4  0
  2  4  1  0
  2  8  1  0
  2 11  1  0
  3 10  4  0
  3 14  4  0
  4  5  1  0
  4 18  2  0
  6 12  1  0
  6 17  4  0
  6 23  4  0
  7  9  1  0
  7 13  4  0
  7 19  4  0
  9 20  1  0
 10 19  4  0
 11 25  4  0
 13 14  4  0
 15 16  4  0
 15 17  4  0
 15 21  4  0
 16 24  1  0
 16 25  4  0
 20 24  1  0
 20 26  2  0
 21 23  4  0
 22 23  1  0
M  END
$$$$

 Created by Python create_sdf_string function

 26 28  0  0  0  0  0  0  0  0999 V2000
   12.4616    8.6700   19.4180 N   0  0  0  0  0  0  0  0  0  0  0  0
   11.8329   10.8148   18.6769 N   0  0  0  0  0  0  0  0  0  0  0  0
    6.1021    2.5564   21.0678 C   0  0  0  0  0  0  0  0  0  0  0  0
   10.9097   11.8051   18.4804 C   0  0  0  0  0  0  0  0  0  0  0  0
   11.2280   12.9135   17.5669 C   0  0  0  0  0  0  0  0  0  0  0  0
   12.3782    5.4231   20.7777 C   0  0  0  0  0  0  0  0  0  0  0  0
    7.7365    4.6508   21.6987 C   0  0  0  0  0  0  0  0  0  0  0  0
   13.0186   11.0102   18.0020 C   0  0  0  0  0  0  0  0  0  0  0  0
    8.6628    5.7088   21.8871 N   0  0  0  0  0  0  0  0  0  0  0  0
    5.6516    3.5258   21.9140 C   0  0  0  0  0  0  0  0  0  0  0  0
   11.5863    9.6815   19.4539 C   0  0  0  0  0  0  0  0  0  0  0  0
   12.9648    4.1543   20.9205 C   0  0  0  0  0  0  0  0  0  0  0  0
    8.2089    3.6265   20.8929 C   0  0  0  0  0  0  0  0  0  0  0  0
    7.3827    2.5724   20.5432 C   0  0  0  0  0  0  0  0  0  0  0  0
   11.1529    7.2750   20.8025 C   0  0  0  0  0  0  0  0  0  0  0  0
   10.2573    8.3215   20.9827 C   0  0  0  0  0  0  0  0  0  0  0  0
   11.1606    5.9378   21.2366 N   0  0  0  0  0  0  0  0  0  0  0  0
    9.8932   11.6736   19.0677 O   0  0  0  0  0  0  0  0  0  0  0  0
    6.4470    4.5850   22.2321 C   0  0  0  0  0  0  0  0  0  0  0  0
    8.4619    6.9895   22.2968 C   0  0  0  0  0  0  0  0  0  0  0  0
   12.2747    7.5102   20.0420 C   0  0  0  0  0  0  0  0  0  0  0  0
   14.2544    6.2142   19.4191 C   0  0  0  0  0  0  0  0  0  0  0  0
   13.0695    6.3705   20.0375 N   0  0  0  0  0  0  0  0  0  0  0  0
    9.1913    8.0876   21.8361 N   0  0  0  0  0  0  0  0  0  0  0  0
   10.4739    9.4813   20.2889 C   0  0  0  0  0  0  0  0  0  0  0  0
    7.5551    7.1270   23.1200 O   0  0  0  0  0  0  0  0  0  0  0  0
  1 11  4  0
  1 21  4  0
  2  4  1  0
  2  8  1  0
  2 11  1  0
  3 10  4  0
  3 14  4  0
  4  5  1  0
  4 18  2  0
  6 12  1  0
  6 17  4  0
  6 23  4  0
  7  9  1  0
  7 13  4  0
  7 19  4  0
  9 20  1  0
 10 19  4  0
 11 25  4  0
 13 14  4  0
 15 16  4  0
 15 17  4  0
 15 21  4  0
 16 24  1  0
 16 25  4  0
 20 24  1  0
 20 26  2  0
 21 23  4  0
 22 23  1  0
M  END
$$$$

 Created by Python create_sdf_string function

 26 28  0  0  0  0  0  0  0  0999 V2000
   12.4616    8.6700   19.4180 N   0  0  0  0  0  0  0  0  0  0  0  0
   11.8329   10.8148   18.6769 N   0  0  0  0  0  0  0  0  0  0  0  0
    6.1021    2.5564   21.0678 C   0  0  0  0  0  0  0  0  0  0  0  0
   10.9097   11.8051   18.4804 C   0  0  0  0  0  0  0  0  0  0  0  0
   11.2280   12.9135   17.5669 C   0  0  0  0  0  0  0  0  0  0  0  0
   12.3782    5.4231   20.7777 C   0  0  0  0  0  0  0  0  0  0  0  0
    7.7365    4.6508   21.6987 C   0  0  0  0  0  0  0  0  0  0  0  0
   13.0186   11.0102   18.0020 C   0  0  0  0  0  0  0  0  0  0  0  0
    8.6628    5.7088   21.8871 N   0  0  0  0  0  0  0  0  0  0  0  0
    5.6516    3.5258   21.9140 C   0  0  0  0  0  0  0  0  0  0  0  0
   11.5863    9.6815   19.4539 C   0  0  0  0  0  0  0  0  0  0  0  0
   12.9648    4.1543   20.9205 C   0  0  0  0  0  0  0  0  0  0  0  0
    8.2089    3.6265   20.8929 C   0  0  0  0  0  0  0  0  0  0  0  0
    7.3827    2.5724   20.5432 C   0  0  0  0  0  0  0  0  0  0  0  0
   11.1529    7.2750   20.8025 C   0  0  0  0  0  0  0  0  0  0  0  0
   10.2573    8.3215   20.9827 C   0  0  0  0  0  0  0  0  0  0  0  0
   11.1606    5.9378   21.2366 N   0  0  0  0  0  0  0  0  0  0  0  0
    9.8932   11.6736   19.0677 O   0  0  0  0  0  0  0  0  0  0  0  0
    6.4470    4.5850   22.2321 C   0  0  0  0  0  0  0  0  0  0  0  0
    8.4619    6.9895   22.2968 C   0  0  0  0  0  0  0  0  0  0  0  0
   12.2747    7.5102   20.0420 C   0  0  0  0  0  0  0  0  0  0  0  0
   14.2544    6.2142   19.4191 C   0  0  0  0  0  0  0  0  0  0  0  0
   13.0695    6.3705   20.0375 N   0  0  0  0  0  0  0  0  0  0  0  0
    9.1913    8.0876   21.8361 N   0  0  0  0  0  0  0  0  0  0  0  0
   10.4739    9.4813   20.2889 C   0  0  0  0  0  0  0  0  0  0  0  0
    7.5551    7.1270   23.1200 O   0  0  0  0  0  0  0  0  0  0  0  0
  1 11  4  0
  1 21  4  0
  2  4  1  0
  2  8  1  0
  2 11  1  0
  3 10  4  0
  3 14  4  0
  4  5  1  0
  4 18  2  0
  6 12  1  0
  6 17  4  0
  6 23  4  0
  7  9  1  0
  7 13  4  0
  7 19  4  0
  9 20  1  0
 10 19  4  0
 11 25  4  0
 13 14  4  0
 15 16  4  0
 15 17  4  0
 15 21  4  0
 16 24  1  0
 16 25  4  0
 20 24  1  0
 20 26  2  0
 21 23  4  0
 22 23  1  0
M  END
$$$$

 Created by Python create_sdf_string function

 26 28  0  0  0  0  0  0  0  0999 V2000
   12.4616    8.6700   19.4180 N   0  0  0  0  0  0  0  0  0  0  0  0
   11.8329   10.8148   18.6769 N   0  0  0  0  0  0  0  0  0  0  0  0
    6.1021    2.5564   21.0678 C   0  0  0  0  0  0  0  0  0  0  0  0
   10.9097   11.8051   18.4804 C   0  0  0  0  0  0  0  0  0  0  0  0
   11.2280   12.9135   17.5669 C   0  0  0  0  0  0  0  0  0  0  0  0
   12.3782    5.4231   20.7777 C   0  0  0  0  0  0  0  0  0  0  0  0
    7.7365    4.6508   21.6987 C   0  0  0  0  0  0  0  0  0  0  0  0
   13.0186   11.0102   18.0020 C   0  0  0  0  0  0  0  0  0  0  0  0
    8.6628    5.7088   21.8871 N   0  0  0  0  0  0  0  0  0  0  0  0
    5.6516    3.5258   21.9140 C   0  0  0  0  0  0  0  0  0  0  0  0
   11.5863    9.6815   19.4539 C   0  0  0  0  0  0  0  0  0  0  0  0
   12.9648    4.1543   20.9205 C   0  0  0  0  0  0  0  0  0  0  0  0
    8.2089    3.6265   20.8929 C   0  0  0  0  0  0  0  0  0  0  0  0
    7.3827    2.5724   20.5432 C   0  0  0  0  0  0  0  0  0  0  0  0
   11.1529    7.2750   20.8025 C   0  0  0  0  0  0  0  0  0  0  0  0
   10.2573    8.3215   20.9827 C   0  0  0  0  0  0  0  0  0  0  0  0
   11.1606    5.9378   21.2366 N   0  0  0  0  0  0  0  0  0  0  0  0
    9.8932   11.6736   19.0677 O   0  0  0  0  0  0  0  0  0  0  0  0
    6.4470    4.5850   22.2321 C   0  0  0  0  0  0  0  0  0  0  0  0
    8.4619    6.9895   22.2968 C   0  0  0  0  0  0  0  0  0  0  0  0
   12.2747    7.5102   20.0420 C   0  0  0  0  0  0  0  0  0  0  0  0
   14.2544    6.2142   19.4191 C   0  0  0  0  0  0  0  0  0  0  0  0
   13.0695    6.3705   20.0375 N   0  0  0  0  0  0  0  0  0  0  0  0
    9.1913    8.0876   21.8361 N   0  0  0  0  0  0  0  0  0  0  0  0
   10.4739    9.4813   20.2889 C   0  0  0  0  0  0  0  0  0  0  0  0
    7.5551    7.1270   23.1200 O   0  0  0  0  0  0  0  0  0  0  0  0
  1 11  4  0
  1 21  4  0
  2  4  1  0
  2  8  1  0
  2 11  1  0
  3 10  4  0
  3 14  4  0
  4  5  1  0
  4 18  2  0
  6 12  1  0
  6 17  4  0
  6 23  4  0
  7  9  1  0
  7 13  4  0
  7 19  4  0
  9 20  1  0
 10 19  4  0
 11 25  4  0
 13 14  4  0
 15 16  4  0
 15 17  4  0
 15 21  4  0
 16 24  1  0
 16 25  4  0
 20 24  1  0
 20 26  2  0
 21 23  4  0
 22 23  1  0
M  END
$$$$

 Created by Python create_sdf_string function

 26 28  0  0  0  0  0  0  0  0999 V2000
   12.4616    8.6700   19.4180 N   0  0  0  0  0  0  0  0  0  0  0  0
   11.8329   10.8148   18.6769 N   0  0  0  0  0  0  0  0  0  0  0  0
    6.1021    2.5564   21.0678 C   0  0  0  0  0  0  0  0  0  0  0  0
   10.9097   11.8051   18.4804 C   0  0  0  0  0  0  0  0  0  0  0  0
   11.2280   12.9135   17.5669 C   0  0  0  0  0  0  0  0  0  0  0  0
   12.3782    5.4231   20.7777 C   0  0  0  0  0  0  0  0  0  0  0  0
    7.7365    4.6508   21.6987 C   0  0  0  0  0  0  0  0  0  0  0  0
   13.0186   11.0102   18.0020 C   0  0  0  0  0  0  0  0  0  0  0  0
    8.6628    5.7088   21.8871 N   0  0  0  0  0  0  0  0  0  0  0  0
    5.6516    3.5258   21.9140 C   0  0  0  0  0  0  0  0  0  0  0  0
   11.5863    9.6815   19.4539 C   0  0  0  0  0  0  0  0  0  0  0  0
   12.9648    4.1543   20.9205 C   0  0  0  0  0  0  0  0  0  0  0  0
    8.2089    3.6265   20.8929 C   0  0  0  0  0  0  0  0  0  0  0  0
    7.3827    2.5724   20.5432 C   0  0  0  0  0  0  0  0  0  0  0  0
   11.1529    7.2750   20.8025 C   0  0  0  0  0  0  0  0  0  0  0  0
   10.2573    8.3215   20.9827 C   0  0  0  0  0  0  0  0  0  0  0  0
   11.1606    5.9378   21.2366 N   0  0  0  0  0  0  0  0  0  0  0  0
    9.8932   11.6736   19.0677 O   0  0  0  0  0  0  0  0  0  0  0  0
    6.4470    4.5850   22.2321 C   0  0  0  0  0  0  0  0  0  0  0  0
    8.4619    6.9895   22.2968 C   0  0  0  0  0  0  0  0  0  0  0  0
   12.2747    7.5102   20.0420 C   0  0  0  0  0  0  0  0  0  0  0  0
   14.2544    6.2142   19.4191 C   0  0  0  0  0  0  0  0  0  0  0  0
   13.0695    6.3705   20.0375 N   0  0  0  0  0  0  0  0  0  0  0  0
    9.1913    8.0876   21.8361 N   0  0  0  0  0  0  0  0  0  0  0  0
   10.4739    9.4813   20.2889 C   0  0  0  0  0  0  0  0  0  0  0  0
    7.5551    7.1270   23.1200 O   0  0  0  0  0  0  0  0  0  0  0  0
  1 11  4  0
  1 21  4  0
  2  4  1  0
  2  8  1  0
  2 11  1  0
  3 10  4  0
  3 14  4  0
  4  5  1  0
  4 18  2  0
  6 12  1  0
  6 17  4  0
  6 23  4  0
  7  9  1  0
  7 13  4  0
  7 19  4  0
  9 20  1  0
 10 19  4  0
 11 25  4  0
 13 14  4  0
 15 16  4  0
 15 17  4  0
 15 21  4  0
 16 24  1  0
 16 25  4  0
 20 24  1  0
 20 26  2  0
 21 23  4  0
 22 23  1  0
M  END
$$$$

 Created by Python create_sdf_string function

 26 28  0  0  0  0  0  0  0  0999 V2000
   12.4616    8.6700   19.4180 N   0  0  0  0  0  0  0  0  0  0  0  0
   11.8329   10.8148   18.6769 N   0  0  0  0  0  0  0  0  0  0  0  0
    6.1021    2.5564   21.0678 C   0  0  0  0  0  0  0  0  0  0  0  0
   10.9097   11.8051   18.4804 C   0  0  0  0  0  0  0  0  0  0  0  0
   11.2280   12.9135   17.5669 C   0  0  0  0  0  0  0  0  0  0  0  0
   12.3782    5.4231   20.7777 C   0  0  0  0  0  0  0  0  0  0  0  0
    7.7365    4.6508   21.6987 C   0  0  0  0  0  0  0  0  0  0  0  0
   13.0186   11.0102   18.0020 C   0  0  0  0  0  0  0  0  0  0  0  0
    8.6628    5.7088   21.8871 N   0  0  0  0  0  0  0  0  0  0  0  0
    5.6516    3.5258   21.9140 C   0  0  0  0  0  0  0  0  0  0  0  0
   11.5863    9.6815   19.4539 C   0  0  0  0  0  0  0  0  0  0  0  0
   12.9648    4.1543   20.9205 C   0  0  0  0  0  0  0  0  0  0  0  0
    8.2089    3.6265   20.8929 C   0  0  0  0  0  0  0  0  0  0  0  0
    7.3827    2.5724   20.5432 C   0  0  0  0  0  0  0  0  0  0  0  0
   11.1529    7.2750   20.8025 C   0  0  0  0  0  0  0  0  0  0  0  0
   10.2573    8.3215   20.9827 C   0  0  0  0  0  0  0  0  0  0  0  0
   11.1606    5.9378   21.2366 N   0  0  0  0  0  0  0  0  0  0  0  0
    9.8932   11.6736   19.0677 O   0  0  0  0  0  0  0  0  0  0  0  0
    6.4470    4.5850   22.2321 C   0  0  0  0  0  0  0  0  0  0  0  0
    8.4619    6.9895   22.2968 C   0  0  0  0  0  0  0  0  0  0  0  0
   12.2747    7.5102   20.0420 C   0  0  0  0  0  0  0  0  0  0  0  0
   14.2544    6.2142   19.4191 C   0  0  0  0  0  0  0  0  0  0  0  0
   13.0695    6.3705   20.0375 N   0  0  0  0  0  0  0  0  0  0  0  0
    9.1913    8.0876   21.8361 N   0  0  0  0  0  0  0  0  0  0  0  0
   10.4739    9.4813   20.2889 C   0  0  0  0  0  0  0  0  0  0  0  0
    7.5551    7.1270   23.1200 O   0  0  0  0  0  0  0  0  0  0  0  0
  1 11  4  0
  1 21  4  0
  2  4  1  0
  2  8  1  0
  2 11  1  0
  3 10  4  0
  3 14  4  0
  4  5  1  0
  4 18  2  0
  6 12  1  0
  6 17  4  0
  6 23  4  0
  7  9  1  0
  7 13  4  0
  7 19  4  0
  9 20  1  0
 10 19  4  0
 11 25  4  0
 13 14  4  0
 15 16  4  0
 15 17  4  0
 15 21  4  0
 16 24  1  0
 16 25  4  0
 20 24  1  0
 20 26  2  0
 21 23  4  0
 22 23  1  0
M  END
$$$$

 Created by Python create_sdf_string function

 26 28  0  0  0  0  0  0  0  0999 V2000
   12.4616    8.6700   19.4180 N   0  0  0  0  0  0  0  0  0  0  0  0
   11.8329   10.8148   18.6769 N   0  0  0  0  0  0  0  0  0  0  0  0
    6.1021    2.5564   21.0678 C   0  0  0  0  0  0  0  0  0  0  0  0
   10.9097   11.8051   18.4804 C   0  0  0  0  0  0  0  0  0  0  0  0
   11.2280   12.9135   17.5669 C   0  0  0  0  0  0  0  0  0  0  0  0
   12.3782    5.4231   20.7777 C   0  0  0  0  0  0  0  0  0  0  0  0
    7.7365    4.6508   21.6987 C   0  0  0  0  0  0  0  0  0  0  0  0
   13.0186   11.0102   18.0020 C   0  0  0  0  0  0  0  0  0  0  0  0
    8.6628    5.7088   21.8871 N   0  0  0  0  0  0  0  0  0  0  0  0
    5.6516    3.5258   21.9140 C   0  0  0  0  0  0  0  0  0  0  0  0
   11.5863    9.6815   19.4539 C   0  0  0  0  0  0  0  0  0  0  0  0
   12.9648    4.1543   20.9205 C   0  0  0  0  0  0  0  0  0  0  0  0
    8.2089    3.6265   20.8929 C   0  0  0  0  0  0  0  0  0  0  0  0
    7.3827    2.5724   20.5432 C   0  0  0  0  0  0  0  0  0  0  0  0
   11.1529    7.2750   20.8025 C   0  0  0  0  0  0  0  0  0  0  0  0
   10.2573    8.3215   20.9827 C   0  0  0  0  0  0  0  0  0  0  0  0
   11.1606    5.9378   21.2366 N   0  0  0  0  0  0  0  0  0  0  0  0
    9.8932   11.6736   19.0677 O   0  0  0  0  0  0  0  0  0  0  0  0
    6.4470    4.5850   22.2321 C   0  0  0  0  0  0  0  0  0  0  0  0
    8.4619    6.9895   22.2968 C   0  0  0  0  0  0  0  0  0  0  0  0
   12.2747    7.5102   20.0420 C   0  0  0  0  0  0  0  0  0  0  0  0
   14.2544    6.2142   19.4191 C   0  0  0  0  0  0  0  0  0  0  0  0
   13.0695    6.3705   20.0375 N   0  0  0  0  0  0  0  0  0  0  0  0
    9.1913    8.0876   21.8361 N   0  0  0  0  0  0  0  0  0  0  0  0
   10.4739    9.4813   20.2889 C   0  0  0  0  0  0  0  0  0  0  0  0
    7.5551    7.1270   23.1200 O   0  0  0  0  0  0  0  0  0  0  0  0
  1 11  4  0
  1 21  4  0
  2  4  1  0
  2  8  1  0
  2 11  1  0
  3 10  4  0
  3 14  4  0
  4  5  1  0
  4 18  2  0
  6 12  1  0
  6 17  4  0
  6 23  4  0
  7  9  1  0
  7 13  4  0
  7 19  4  0
  9 20  1  0
 10 19  4  0
 11 25  4  0
 13 14  4  0
 15 16  4  0
 15 17  4  0
 15 21  4  0
 16 24  1  0
 16 25  4  0
 20 24  1  0
 20 26  2  0
 21 23  4  0
 22 23  1  0
M  END
$$$$

 Created by Python create_sdf_string function

 26 28  0  0  0  0  0  0  0  0999 V2000
   12.4616    8.6700   19.4180 N   0  0  0  0  0  0  0  0  0  0  0  0
   11.8329   10.8148   18.6769 N   0  0  0  0  0  0  0  0  0  0  0  0
    6.1021    2.5564   21.0678 C   0  0  0  0  0  0  0  0  0  0  0  0
   10.9097   11.8051   18.4804 C   0  0  0  0  0  0  0  0  0  0  0  0
   11.2280   12.9135   17.5669 C   0  0  0  0  0  0  0  0  0  0  0  0
   12.3782    5.4231   20.7777 C   0  0  0  0  0  0  0  0  0  0  0  0
    7.7365    4.6508   21.6987 C   0  0  0  0  0  0  0  0  0  0  0  0
   13.0186   11.0102   18.0020 C   0  0  0  0  0  0  0  0  0  0  0  0
    8.6628    5.7088   21.8871 N   0  0  0  0  0  0  0  0  0  0  0  0
    5.6516    3.5258   21.9140 C   0  0  0  0  0  0  0  0  0  0  0  0
   11.5863    9.6815   19.4539 C   0  0  0  0  0  0  0  0  0  0  0  0
   12.9648    4.1543   20.9205 C   0  0  0  0  0  0  0  0  0  0  0  0
    8.2089    3.6265   20.8929 C   0  0  0  0  0  0  0  0  0  0  0  0
    7.3827    2.5724   20.5432 C   0  0  0  0  0  0  0  0  0  0  0  0
   11.1529    7.2750   20.8025 C   0  0  0  0  0  0  0  0  0  0  0  0
   10.2573    8.3215   20.9827 C   0  0  0  0  0  0  0  0  0  0  0  0
   11.1606    5.9378   21.2366 N   0  0  0  0  0  0  0  0  0  0  0  0
    9.8932   11.6736   19.0677 O   0  0  0  0  0  0  0  0  0  0  0  0
    6.4470    4.5850   22.2321 C   0  0  0  0  0  0  0  0  0  0  0  0
    8.4619    6.9895   22.2968 C   0  0  0  0  0  0  0  0  0  0  0  0
   12.2747    7.5102   20.0420 C   0  0  0  0  0  0  0  0  0  0  0  0
   14.2544    6.2142   19.4191 C   0  0  0  0  0  0  0  0  0  0  0  0
   13.0695    6.3705   20.0375 N   0  0  0  0  0  0  0  0  0  0  0  0
    9.1913    8.0876   21.8361 N   0  0  0  0  0  0  0  0  0  0  0  0
   10.4739    9.4813   20.2889 C   0  0  0  0  0  0  0  0  0  0  0  0
    7.5551    7.1270   23.1200 O   0  0  0  0  0  0  0  0  0  0  0  0
  1 11  4  0
  1 21  4  0
  2  4  1  0
  2  8  1  0
  2 11  1  0
  3 10  4  0
  3 14  4  0
  4  5  1  0
  4 18  2  0
  6 12  1  0
  6 17  4  0
  6 23  4  0
  7  9  1  0
  7 13  4  0
  7 19  4  0
  9 20  1  0
 10 19  4  0
 11 25  4  0
 13 14  4  0
 15 16  4  0
 15 17  4  0
 15 21  4  0
 16 24  1  0
 16 25  4  0
 20 24  1  0
 20 26  2  0
 21 23  4  0
 22 23  1  0
M  END
$$$$

 Created by Python create_sdf_string function

 26 28  0  0  0  0  0  0  0  0999 V2000
   12.4616    8.6700   19.4180 N   0  0  0  0  0  0  0  0  0  0  0  0
   11.8329   10.8148   18.6769 N   0  0  0  0  0  0  0  0  0  0  0  0
    6.1021    2.5564   21.0678 C   0  0  0  0  0  0  0  0  0  0  0  0
   10.9097   11.8051   18.4804 C   0  0  0  0  0  0  0  0  0  0  0  0
   11.2280   12.9135   17.5669 C   0  0  0  0  0  0  0  0  0  0  0  0
   12.3782    5.4231   20.7777 C   0  0  0  0  0  0  0  0  0  0  0  0
    7.7365    4.6508   21.6987 C   0  0  0  0  0  0  0  0  0  0  0  0
   13.0186   11.0102   18.0020 C   0  0  0  0  0  0  0  0  0  0  0  0
    8.6628    5.7088   21.8871 N   0  0  0  0  0  0  0  0  0  0  0  0
    5.6516    3.5258   21.9140 C   0  0  0  0  0  0  0  0  0  0  0  0
   11.5863    9.6815   19.4539 C   0  0  0  0  0  0  0  0  0  0  0  0
   12.9648    4.1543   20.9205 C   0  0  0  0  0  0  0  0  0  0  0  0
    8.2089    3.6265   20.8929 C   0  0  0  0  0  0  0  0  0  0  0  0
    7.3827    2.5724   20.5432 C   0  0  0  0  0  0  0  0  0  0  0  0
   11.1529    7.2750   20.8025 C   0  0  0  0  0  0  0  0  0  0  0  0
   10.2573    8.3215   20.9827 C   0  0  0  0  0  0  0  0  0  0  0  0
   11.1606    5.9378   21.2366 N   0  0  0  0  0  0  0  0  0  0  0  0
    9.8932   11.6736   19.0677 O   0  0  0  0  0  0  0  0  0  0  0  0
    6.4470    4.5850   22.2321 C   0  0  0  0  0  0  0  0  0  0  0  0
    8.4619    6.9895   22.2968 C   0  0  0  0  0  0  0  0  0  0  0  0
   12.2747    7.5102   20.0420 C   0  0  0  0  0  0  0  0  0  0  0  0
   14.2544    6.2142   19.4191 C   0  0  0  0  0  0  0  0  0  0  0  0
   13.0695    6.3705   20.0375 N   0  0  0  0  0  0  0  0  0  0  0  0
    9.1913    8.0876   21.8361 N   0  0  0  0  0  0  0  0  0  0  0  0
   10.4739    9.4813   20.2889 C   0  0  0  0  0  0  0  0  0  0  0  0
    7.5551    7.1270   23.1200 O   0  0  0  0  0  0  0  0  0  0  0  0
  1 11  4  0
  1 21  4  0
  2  4  1  0
  2  8  1  0
  2 11  1  0
  3 10  4  0
  3 14  4  0
  4  5  1  0
  4 18  2  0
  6 12  1  0
  6 17  4  0
  6 23  4  0
  7  9  1  0
  7 13  4  0
  7 19  4  0
  9 20  1  0
 10 19  4  0
 11 25  4  0
 13 14  4  0
 15 16  4  0
 15 17  4  0
 15 21  4  0
 16 24  1  0
 16 25  4  0
 20 24  1  0
 20 26  2  0
 21 23  4  0
 22 23  1  0
M  END
$$$$

 Created by Python create_sdf_string function

 26 28  0  0  0  0  0  0  0  0999 V2000
   12.4616    8.6700   19.4180 N   0  0  0  0  0  0  0  0  0  0  0  0
   11.8329   10.8148   18.6769 N   0  0  0  0  0  0  0  0  0  0  0  0
    6.1021    2.5564   21.0678 C   0  0  0  0  0  0  0  0  0  0  0  0
   10.9097   11.8051   18.4804 C   0  0  0  0  0  0  0  0  0  0  0  0
   11.2280   12.9135   17.5669 C   0  0  0  0  0  0  0  0  0  0  0  0
   12.3782    5.4231   20.7777 C   0  0  0  0  0  0  0  0  0  0  0  0
    7.7365    4.6508   21.6987 C   0  0  0  0  0  0  0  0  0  0  0  0
   13.0186   11.0102   18.0020 C   0  0  0  0  0  0  0  0  0  0  0  0
    8.6628    5.7088   21.8871 N   0  0  0  0  0  0  0  0  0  0  0  0
    5.6516    3.5258   21.9140 C   0  0  0  0  0  0  0  0  0  0  0  0
   11.5863    9.6815   19.4539 C   0  0  0  0  0  0  0  0  0  0  0  0
   12.9648    4.1543   20.9205 C   0  0  0  0  0  0  0  0  0  0  0  0
    8.2089    3.6265   20.8929 C   0  0  0  0  0  0  0  0  0  0  0  0
    7.3827    2.5724   20.5432 C   0  0  0  0  0  0  0  0  0  0  0  0
   11.1529    7.2750   20.8025 C   0  0  0  0  0  0  0  0  0  0  0  0
   10.2573    8.3215   20.9827 C   0  0  0  0  0  0  0  0  0  0  0  0
   11.1606    5.9378   21.2366 N   0  0  0  0  0  0  0  0  0  0  0  0
    9.8932   11.6736   19.0677 O   0  0  0  0  0  0  0  0  0  0  0  0
    6.4470    4.5850   22.2321 C   0  0  0  0  0  0  0  0  0  0  0  0
    8.4619    6.9895   22.2968 C   0  0  0  0  0  0  0  0  0  0  0  0
   12.2747    7.5102   20.0420 C   0  0  0  0  0  0  0  0  0  0  0  0
   14.2544    6.2142   19.4191 C   0  0  0  0  0  0  0  0  0  0  0  0
   13.0695    6.3705   20.0375 N   0  0  0  0  0  0  0  0  0  0  0  0
    9.1913    8.0876   21.8361 N   0  0  0  0  0  0  0  0  0  0  0  0
   10.4739    9.4813   20.2889 C   0  0  0  0  0  0  0  0  0  0  0  0
    7.5551    7.1270   23.1200 O   0  0  0  0  0  0  0  0  0  0  0  0
  1 11  4  0
  1 21  4  0
  2  4  1  0
  2  8  1  0
  2 11  1  0
  3 10  4  0
  3 14  4  0
  4  5  1  0
  4 18  2  0
  6 12  1  0
  6 17  4  0
  6 23  4  0
  7  9  1  0
  7 13  4  0
  7 19  4  0
  9 20  1  0
 10 19  4  0
 11 25  4  0
 13 14  4  0
 15 16  4  0
 15 17  4  0
 15 21  4  0
 16 24  1  0
 16 25  4  0
 20 24  1  0
 20 26  2  0
 21 23  4  0
 22 23  1  0
M  END
$$$$

 Created by Python create_sdf_string function

 26 28  0  0  0  0  0  0  0  0999 V2000
   12.4616    8.6700   19.4180 N   0  0  0  0  0  0  0  0  0  0  0  0
   11.8329   10.8148   18.6769 N   0  0  0  0  0  0  0  0  0  0  0  0
    6.1021    2.5564   21.0678 C   0  0  0  0  0  0  0  0  0  0  0  0
   10.9097   11.8051   18.4804 C   0  0  0  0  0  0  0  0  0  0  0  0
   11.2280   12.9135   17.5669 C   0  0  0  0  0  0  0  0  0  0  0  0
   12.3782    5.4231   20.7777 C   0  0  0  0  0  0  0  0  0  0  0  0
    7.7365    4.6508   21.6987 C   0  0  0  0  0  0  0  0  0  0  0  0
   13.0186   11.0102   18.0020 C   0  0  0  0  0  0  0  0  0  0  0  0
    8.6628    5.7088   21.8871 N   0  0  0  0  0  0  0  0  0  0  0  0
    5.6516    3.5258   21.9140 C   0  0  0  0  0  0  0  0  0  0  0  0
   11.5863    9.6815   19.4539 C   0  0  0  0  0  0  0  0  0  0  0  0
   12.9648    4.1543   20.9205 C   0  0  0  0  0  0  0  0  0  0  0  0
    8.2089    3.6265   20.8929 C   0  0  0  0  0  0  0  0  0  0  0  0
    7.3827    2.5724   20.5432 C   0  0  0  0  0  0  0  0  0  0  0  0
   11.1529    7.2750   20.8025 C   0  0  0  0  0  0  0  0  0  0  0  0
   10.2573    8.3215   20.9827 C   0  0  0  0  0  0  0  0  0  0  0  0
   11.1606    5.9378   21.2366 N   0  0  0  0  0  0  0  0  0  0  0  0
    9.8932   11.6736   19.0677 O   0  0  0  0  0  0  0  0  0  0  0  0
    6.4470    4.5850   22.2321 C   0  0  0  0  0  0  0  0  0  0  0  0
    8.4619    6.9895   22.2968 C   0  0  0  0  0  0  0  0  0  0  0  0
   12.2747    7.5102   20.0420 C   0  0  0  0  0  0  0  0  0  0  0  0
   14.2544    6.2142   19.4191 C   0  0  0  0  0  0  0  0  0  0  0  0
   13.0695    6.3705   20.0375 N   0  0  0  0  0  0  0  0  0  0  0  0
    9.1913    8.0876   21.8361 N   0  0  0  0  0  0  0  0  0  0  0  0
   10.4739    9.4813   20.2889 C   0  0  0  0  0  0  0  0  0  0  0  0
    7.5551    7.1270   23.1200 O   0  0  0  0  0  0  0  0  0  0  0  0
  1 11  4  0
  1 21  4  0
  2  4  1  0
  2  8  1  0
  2 11  1  0
  3 10  4  0
  3 14  4  0
  4  5  1  0
  4 18  2  0
  6 12  1  0
  6 17  4  0
  6 23  4  0
  7  9  1  0
  7 13  4  0
  7 19  4  0
  9 20  1  0
 10 19  4  0
 11 25  4  0
 13 14  4  0
 15 16  4  0
 15 17  4  0
 15 21  4  0
 16 24  1  0
 16 25  4  0
 20 24  1  0
 20 26  2  0
 21 23  4  0
 22 23  1  0
M  END
$$$$

 Created by Python create_sdf_string function

 26 28  0  0  0  0  0  0  0  0999 V2000
   12.4616    8.6700   19.4180 N   0  0  0  0  0  0  0  0  0  0  0  0
   11.8329   10.8148   18.6769 N   0  0  0  0  0  0  0  0  0  0  0  0
    6.1021    2.5564   21.0678 C   0  0  0  0  0  0  0  0  0  0  0  0
   10.9097   11.8051   18.4804 C   0  0  0  0  0  0  0  0  0  0  0  0
   11.2280   12.9135   17.5669 C   0  0  0  0  0  0  0  0  0  0  0  0
   12.3782    5.4231   20.7777 C   0  0  0  0  0  0  0  0  0  0  0  0
    7.7365    4.6508   21.6987 C   0  0  0  0  0  0  0  0  0  0  0  0
   13.0186   11.0102   18.0020 C   0  0  0  0  0  0  0  0  0  0  0  0
    8.6628    5.7088   21.8871 N   0  0  0  0  0  0  0  0  0  0  0  0
    5.6516    3.5258   21.9140 C   0  0  0  0  0  0  0  0  0  0  0  0
   11.5863    9.6815   19.4539 C   0  0  0  0  0  0  0  0  0  0  0  0
   12.9648    4.1543   20.9205 C   0  0  0  0  0  0  0  0  0  0  0  0
    8.2089    3.6265   20.8929 C   0  0  0  0  0  0  0  0  0  0  0  0
    7.3827    2.5724   20.5432 C   0  0  0  0  0  0  0  0  0  0  0  0
   11.1529    7.2750   20.8025 C   0  0  0  0  0  0  0  0  0  0  0  0
   10.2573    8.3215   20.9827 C   0  0  0  0  0  0  0  0  0  0  0  0
   11.1606    5.9378   21.2366 N   0  0  0  0  0  0  0  0  0  0  0  0
    9.8932   11.6736   19.0677 O   0  0  0  0  0  0  0  0  0  0  0  0
    6.4470    4.5850   22.2321 C   0  0  0  0  0  0  0  0  0  0  0  0
    8.4619    6.9895   22.2968 C   0  0  0  0  0  0  0  0  0  0  0  0
   12.2747    7.5102   20.0420 C   0  0  0  0  0  0  0  0  0  0  0  0
   14.2544    6.2142   19.4191 C   0  0  0  0  0  0  0  0  0  0  0  0
   13.0695    6.3705   20.0375 N   0  0  0  0  0  0  0  0  0  0  0  0
    9.1913    8.0876   21.8361 N   0  0  0  0  0  0  0  0  0  0  0  0
   10.4739    9.4813   20.2889 C   0  0  0  0  0  0  0  0  0  0  0  0
    7.5551    7.1270   23.1200 O   0  0  0  0  0  0  0  0  0  0  0  0
  1 11  4  0
  1 21  4  0
  2  4  1  0
  2  8  1  0
  2 11  1  0
  3 10  4  0
  3 14  4  0
  4  5  1  0
  4 18  2  0
  6 12  1  0
  6 17  4  0
  6 23  4  0
  7  9  1  0
  7 13  4  0
  7 19  4  0
  9 20  1  0
 10 19  4  0
 11 25  4  0
 13 14  4  0
 15 16  4  0
 15 17  4  0
 15 21  4  0
 16 24  1  0
 16 25  4  0
 20 24  1  0
 20 26  2  0
 21 23  4  0
 22 23  1  0
M  END
$$$$

 Created by Python create_sdf_string function

 26 28  0  0  0  0  0  0  0  0999 V2000
   12.4616    8.6700   19.4180 N   0  0  0  0  0  0  0  0  0  0  0  0
   11.8329   10.8148   18.6769 N   0  0  0  0  0  0  0  0  0  0  0  0
    6.1021    2.5564   21.0678 C   0  0  0  0  0  0  0  0  0  0  0  0
   10.9097   11.8051   18.4804 C   0  0  0  0  0  0  0  0  0  0  0  0
   11.2280   12.9135   17.5669 C   0  0  0  0  0  0  0  0  0  0  0  0
   12.3782    5.4231   20.7777 C   0  0  0  0  0  0  0  0  0  0  0  0
    7.7365    4.6508   21.6987 C   0  0  0  0  0  0  0  0  0  0  0  0
   13.0186   11.0102   18.0020 C   0  0  0  0  0  0  0  0  0  0  0  0
    8.6628    5.7088   21.8871 N   0  0  0  0  0  0  0  0  0  0  0  0
    5.6516    3.5258   21.9140 C   0  0  0  0  0  0  0  0  0  0  0  0
   11.5863    9.6815   19.4539 C   0  0  0  0  0  0  0  0  0  0  0  0
   12.9648    4.1543   20.9205 C   0  0  0  0  0  0  0  0  0  0  0  0
    8.2089    3.6265   20.8929 C   0  0  0  0  0  0  0  0  0  0  0  0
    7.3827    2.5724   20.5432 C   0  0  0  0  0  0  0  0  0  0  0  0
   11.1529    7.2750   20.8025 C   0  0  0  0  0  0  0  0  0  0  0  0
   10.2573    8.3215   20.9827 C   0  0  0  0  0  0  0  0  0  0  0  0
   11.1606    5.9378   21.2366 N   0  0  0  0  0  0  0  0  0  0  0  0
    9.8932   11.6736   19.0677 O   0  0  0  0  0  0  0  0  0  0  0  0
    6.4470    4.5850   22.2321 C   0  0  0  0  0  0  0  0  0  0  0  0
    8.4619    6.9895   22.2968 C   0  0  0  0  0  0  0  0  0  0  0  0
   12.2747    7.5102   20.0420 C   0  0  0  0  0  0  0  0  0  0  0  0
   14.2544    6.2142   19.4191 C   0  0  0  0  0  0  0  0  0  0  0  0
   13.0695    6.3705   20.0375 N   0  0  0  0  0  0  0  0  0  0  0  0
    9.1913    8.0876   21.8361 N   0  0  0  0  0  0  0  0  0  0  0  0
   10.4739    9.4813   20.2889 C   0  0  0  0  0  0  0  0  0  0  0  0
    7.5551    7.1270   23.1200 O   0  0  0  0  0  0  0  0  0  0  0  0
  1 11  4  0
  1 21  4  0
  2  4  1  0
  2  8  1  0
  2 11  1  0
  3 10  4  0
  3 14  4  0
  4  5  1  0
  4 18  2  0
  6 12  1  0
  6 17  4  0
  6 23  4  0
  7  9  1  0
  7 13  4  0
  7 19  4  0
  9 20  1  0
 10 19  4  0
 11 25  4  0
 13 14  4  0
 15 16  4  0
 15 17  4  0
 15 21  4  0
 16 24  1  0
 16 25  4  0
 20 24  1  0
 20 26  2  0
 21 23  4  0
 22 23  1  0
M  END
$$$$

 Created by Python create_sdf_string function

 26 28  0  0  0  0  0  0  0  0999 V2000
   12.4616    8.6700   19.4180 N   0  0  0  0  0  0  0  0  0  0  0  0
   11.8329   10.8148   18.6769 N   0  0  0  0  0  0  0  0  0  0  0  0
    6.1021    2.5564   21.0678 C   0  0  0  0  0  0  0  0  0  0  0  0
   10.9097   11.8051   18.4804 C   0  0  0  0  0  0  0  0  0  0  0  0
   11.2280   12.9135   17.5669 C   0  0  0  0  0  0  0  0  0  0  0  0
   12.3782    5.4231   20.7777 C   0  0  0  0  0  0  0  0  0  0  0  0
    7.7365    4.6508   21.6987 C   0  0  0  0  0  0  0  0  0  0  0  0
   13.0186   11.0102   18.0020 C   0  0  0  0  0  0  0  0  0  0  0  0
    8.6628    5.7088   21.8871 N   0  0  0  0  0  0  0  0  0  0  0  0
    5.6516    3.5258   21.9140 C   0  0  0  0  0  0  0  0  0  0  0  0
   11.5863    9.6815   19.4539 C   0  0  0  0  0  0  0  0  0  0  0  0
   12.9648    4.1543   20.9205 C   0  0  0  0  0  0  0  0  0  0  0  0
    8.2089    3.6265   20.8929 C   0  0  0  0  0  0  0  0  0  0  0  0
    7.3827    2.5724   20.5432 C   0  0  0  0  0  0  0  0  0  0  0  0
   11.1529    7.2750   20.8025 C   0  0  0  0  0  0  0  0  0  0  0  0
   10.2573    8.3215   20.9827 C   0  0  0  0  0  0  0  0  0  0  0  0
   11.1606    5.9378   21.2366 N   0  0  0  0  0  0  0  0  0  0  0  0
    9.8932   11.6736   19.0677 O   0  0  0  0  0  0  0  0  0  0  0  0
    6.4470    4.5850   22.2321 C   0  0  0  0  0  0  0  0  0  0  0  0
    8.4619    6.9895   22.2968 C   0  0  0  0  0  0  0  0  0  0  0  0
   12.2747    7.5102   20.0420 C   0  0  0  0  0  0  0  0  0  0  0  0
   14.2544    6.2142   19.4191 C   0  0  0  0  0  0  0  0  0  0  0  0
   13.0695    6.3705   20.0375 N   0  0  0  0  0  0  0  0  0  0  0  0
    9.1913    8.0876   21.8361 N   0  0  0  0  0  0  0  0  0  0  0  0
   10.4739    9.4813   20.2889 C   0  0  0  0  0  0  0  0  0  0  0  0
    7.5551    7.1270   23.1200 O   0  0  0  0  0  0  0  0  0  0  0  0
  1 11  4  0
  1 21  4  0
  2  4  1  0
  2  8  1  0
  2 11  1  0
  3 10  4  0
  3 14  4  0
  4  5  1  0
  4 18  2  0
  6 12  1  0
  6 17  4  0
  6 23  4  0
  7  9  1  0
  7 13  4  0
  7 19  4  0
  9 20  1  0
 10 19  4  0
 11 25  4  0
 13 14  4  0
 15 16  4  0
 15 17  4  0
 15 21  4  0
 16 24  1  0
 16 25  4  0
 20 24  1  0
 20 26  2  0
 21 23  4  0
 22 23  1  0
M  END
$$$$

 Created by Python create_sdf_string function

 26 28  0  0  0  0  0  0  0  0999 V2000
   12.4616    8.6700   19.4180 N   0  0  0  0  0  0  0  0  0  0  0  0
   11.8329   10.8148   18.6769 N   0  0  0  0  0  0  0  0  0  0  0  0
    6.1021    2.5564   21.0678 C   0  0  0  0  0  0  0  0  0  0  0  0
   10.9097   11.8051   18.4804 C   0  0  0  0  0  0  0  0  0  0  0  0
   11.2280   12.9135   17.5669 C   0  0  0  0  0  0  0  0  0  0  0  0
   12.3782    5.4231   20.7777 C   0  0  0  0  0  0  0  0  0  0  0  0
    7.7365    4.6508   21.6987 C   0  0  0  0  0  0  0  0  0  0  0  0
   13.0186   11.0102   18.0020 C   0  0  0  0  0  0  0  0  0  0  0  0
    8.6628    5.7088   21.8871 N   0  0  0  0  0  0  0  0  0  0  0  0
    5.6516    3.5258   21.9140 C   0  0  0  0  0  0  0  0  0  0  0  0
   11.5863    9.6815   19.4539 C   0  0  0  0  0  0  0  0  0  0  0  0
   12.9648    4.1543   20.9205 C   0  0  0  0  0  0  0  0  0  0  0  0
    8.2089    3.6265   20.8929 C   0  0  0  0  0  0  0  0  0  0  0  0
    7.3827    2.5724   20.5432 C   0  0  0  0  0  0  0  0  0  0  0  0
   11.1529    7.2750   20.8025 C   0  0  0  0  0  0  0  0  0  0  0  0
   10.2573    8.3215   20.9827 C   0  0  0  0  0  0  0  0  0  0  0  0
   11.1606    5.9378   21.2366 N   0  0  0  0  0  0  0  0  0  0  0  0
    9.8932   11.6736   19.0677 O   0  0  0  0  0  0  0  0  0  0  0  0
    6.4470    4.5850   22.2321 C   0  0  0  0  0  0  0  0  0  0  0  0
    8.4619    6.9895   22.2968 C   0  0  0  0  0  0  0  0  0  0  0  0
   12.2747    7.5102   20.0420 C   0  0  0  0  0  0  0  0  0  0  0  0
   14.2544    6.2142   19.4191 C   0  0  0  0  0  0  0  0  0  0  0  0
   13.0695    6.3705   20.0375 N   0  0  0  0  0  0  0  0  0  0  0  0
    9.1913    8.0876   21.8361 N   0  0  0  0  0  0  0  0  0  0  0  0
   10.4739    9.4813   20.2889 C   0  0  0  0  0  0  0  0  0  0  0  0
    7.5551    7.1270   23.1200 O   0  0  0  0  0  0  0  0  0  0  0  0
  1 11  4  0
  1 21  4  0
  2  4  1  0
  2  8  1  0
  2 11  1  0
  3 10  4  0
  3 14  4  0
  4  5  1  0
  4 18  2  0
  6 12  1  0
  6 17  4  0
  6 23  4  0
  7  9  1  0
  7 13  4  0
  7 19  4  0
  9 20  1  0
 10 19  4  0
 11 25  4  0
 13 14  4  0
 15 16  4  0
 15 17  4  0
 15 21  4  0
 16 24  1  0
 16 25  4  0
 20 24  1  0
 20 26  2  0
 21 23  4  0
 22 23  1  0
M  END
$$$$

 Created by Python create_sdf_string function

 26 28  0  0  0  0  0  0  0  0999 V2000
   12.4616    8.6700   19.4180 N   0  0  0  0  0  0  0  0  0  0  0  0
   11.8329   10.8148   18.6769 N   0  0  0  0  0  0  0  0  0  0  0  0
    6.1021    2.5564   21.0678 C   0  0  0  0  0  0  0  0  0  0  0  0
   10.9097   11.8051   18.4804 C   0  0  0  0  0  0  0  0  0  0  0  0
   11.2280   12.9135   17.5669 C   0  0  0  0  0  0  0  0  0  0  0  0
   12.3782    5.4231   20.7777 C   0  0  0  0  0  0  0  0  0  0  0  0
    7.7365    4.6508   21.6987 C   0  0  0  0  0  0  0  0  0  0  0  0
   13.0186   11.0102   18.0020 C   0  0  0  0  0  0  0  0  0  0  0  0
    8.6628    5.7088   21.8871 N   0  0  0  0  0  0  0  0  0  0  0  0
    5.6516    3.5258   21.9140 C   0  0  0  0  0  0  0  0  0  0  0  0
   11.5863    9.6815   19.4539 C   0  0  0  0  0  0  0  0  0  0  0  0
   12.9648    4.1543   20.9205 C   0  0  0  0  0  0  0  0  0  0  0  0
    8.2089    3.6265   20.8929 C   0  0  0  0  0  0  0  0  0  0  0  0
    7.3827    2.5724   20.5432 C   0  0  0  0  0  0  0  0  0  0  0  0
   11.1529    7.2750   20.8025 C   0  0  0  0  0  0  0  0  0  0  0  0
   10.2573    8.3215   20.9827 C   0  0  0  0  0  0  0  0  0  0  0  0
   11.1606    5.9378   21.2366 N   0  0  0  0  0  0  0  0  0  0  0  0
    9.8932   11.6736   19.0677 O   0  0  0  0  0  0  0  0  0  0  0  0
    6.4470    4.5850   22.2321 C   0  0  0  0  0  0  0  0  0  0  0  0
    8.4619    6.9895   22.2968 C   0  0  0  0  0  0  0  0  0  0  0  0
   12.2747    7.5102   20.0420 C   0  0  0  0  0  0  0  0  0  0  0  0
   14.2544    6.2142   19.4191 C   0  0  0  0  0  0  0  0  0  0  0  0
   13.0695    6.3705   20.0375 N   0  0  0  0  0  0  0  0  0  0  0  0
    9.1913    8.0876   21.8361 N   0  0  0  0  0  0  0  0  0  0  0  0
   10.4739    9.4813   20.2889 C   0  0  0  0  0  0  0  0  0  0  0  0
    7.5551    7.1270   23.1200 O   0  0  0  0  0  0  0  0  0  0  0  0
  1 11  4  0
  1 21  4  0
  2  4  1  0
  2  8  1  0
  2 11  1  0
  3 10  4  0
  3 14  4  0
  4  5  1  0
  4 18  2  0
  6 12  1  0
  6 17  4  0
  6 23  4  0
  7  9  1  0
  7 13  4  0
  7 19  4  0
  9 20  1  0
 10 19  4  0
 11 25  4  0
 13 14  4  0
 15 16  4  0
 15 17  4  0
 15 21  4  0
 16 24  1  0
 16 25  4  0
 20 24  1  0
 20 26  2  0
 21 23  4  0
 22 23  1  0
M  END
$$$$

 Created by Python create_sdf_string function

 26 28  0  0  0  0  0  0  0  0999 V2000
   12.4616    8.6700   19.4180 N   0  0  0  0  0  0  0  0  0  0  0  0
   11.8329   10.8148   18.6769 N   0  0  0  0  0  0  0  0  0  0  0  0
    6.1021    2.5564   21.0678 C   0  0  0  0  0  0  0  0  0  0  0  0
   10.9097   11.8051   18.4804 C   0  0  0  0  0  0  0  0  0  0  0  0
   11.2280   12.9135   17.5669 C   0  0  0  0  0  0  0  0  0  0  0  0
   12.3782    5.4231   20.7777 C   0  0  0  0  0  0  0  0  0  0  0  0
    7.7365    4.6508   21.6987 C   0  0  0  0  0  0  0  0  0  0  0  0
   13.0186   11.0102   18.0020 C   0  0  0  0  0  0  0  0  0  0  0  0
    8.6628    5.7088   21.8871 N   0  0  0  0  0  0  0  0  0  0  0  0
    5.6516    3.5258   21.9140 C   0  0  0  0  0  0  0  0  0  0  0  0
   11.5863    9.6815   19.4539 C   0  0  0  0  0  0  0  0  0  0  0  0
   12.9648    4.1543   20.9205 C   0  0  0  0  0  0  0  0  0  0  0  0
    8.2089    3.6265   20.8929 C   0  0  0  0  0  0  0  0  0  0  0  0
    7.3827    2.5724   20.5432 C   0  0  0  0  0  0  0  0  0  0  0  0
   11.1529    7.2750   20.8025 C   0  0  0  0  0  0  0  0  0  0  0  0
   10.2573    8.3215   20.9827 C   0  0  0  0  0  0  0  0  0  0  0  0
   11.1606    5.9378   21.2366 N   0  0  0  0  0  0  0  0  0  0  0  0
    9.8932   11.6736   19.0677 O   0  0  0  0  0  0  0  0  0  0  0  0
    6.4470    4.5850   22.2321 C   0  0  0  0  0  0  0  0  0  0  0  0
    8.4619    6.9895   22.2968 C   0  0  0  0  0  0  0  0  0  0  0  0
   12.2747    7.5102   20.0420 C   0  0  0  0  0  0  0  0  0  0  0  0
   14.2544    6.2142   19.4191 C   0  0  0  0  0  0  0  0  0  0  0  0
   13.0695    6.3705   20.0375 N   0  0  0  0  0  0  0  0  0  0  0  0
    9.1913    8.0876   21.8361 N   0  0  0  0  0  0  0  0  0  0  0  0
   10.4739    9.4813   20.2889 C   0  0  0  0  0  0  0  0  0  0  0  0
    7.5551    7.1270   23.1200 O   0  0  0  0  0  0  0  0  0  0  0  0
  1 11  4  0
  1 21  4  0
  2  4  1  0
  2  8  1  0
  2 11  1  0
  3 10  4  0
  3 14  4  0
  4  5  1  0
  4 18  2  0
  6 12  1  0
  6 17  4  0
  6 23  4  0
  7  9  1  0
  7 13  4  0
  7 19  4  0
  9 20  1  0
 10 19  4  0
 11 25  4  0
 13 14  4  0
 15 16  4  0
 15 17  4  0
 15 21  4  0
 16 24  1  0
 16 25  4  0
 20 24  1  0
 20 26  2  0
 21 23  4  0
 22 23  1  0
M  END
$$$$

 Created by Python create_sdf_string function

 26 28  0  0  0  0  0  0  0  0999 V2000
   12.4616    8.6700   19.4180 N   0  0  0  0  0  0  0  0  0  0  0  0
   11.8329   10.8148   18.6769 N   0  0  0  0  0  0  0  0  0  0  0  0
    6.1021    2.5564   21.0678 C   0  0  0  0  0  0  0  0  0  0  0  0
   10.9097   11.8051   18.4804 C   0  0  0  0  0  0  0  0  0  0  0  0
   11.2280   12.9135   17.5669 C   0  0  0  0  0  0  0  0  0  0  0  0
   12.3782    5.4231   20.7777 C   0  0  0  0  0  0  0  0  0  0  0  0
    7.7365    4.6508   21.6987 C   0  0  0  0  0  0  0  0  0  0  0  0
   13.0186   11.0102   18.0020 C   0  0  0  0  0  0  0  0  0  0  0  0
    8.6628    5.7088   21.8871 N   0  0  0  0  0  0  0  0  0  0  0  0
    5.6516    3.5258   21.9140 C   0  0  0  0  0  0  0  0  0  0  0  0
   11.5863    9.6815   19.4539 C   0  0  0  0  0  0  0  0  0  0  0  0
   12.9648    4.1543   20.9205 C   0  0  0  0  0  0  0  0  0  0  0  0
    8.2089    3.6265   20.8929 C   0  0  0  0  0  0  0  0  0  0  0  0
    7.3827    2.5724   20.5432 C   0  0  0  0  0  0  0  0  0  0  0  0
   11.1529    7.2750   20.8025 C   0  0  0  0  0  0  0  0  0  0  0  0
   10.2573    8.3215   20.9827 C   0  0  0  0  0  0  0  0  0  0  0  0
   11.1606    5.9378   21.2366 N   0  0  0  0  0  0  0  0  0  0  0  0
    9.8932   11.6736   19.0677 O   0  0  0  0  0  0  0  0  0  0  0  0
    6.4470    4.5850   22.2321 C   0  0  0  0  0  0  0  0  0  0  0  0
    8.4619    6.9895   22.2968 C   0  0  0  0  0  0  0  0  0  0  0  0
   12.2747    7.5102   20.0420 C   0  0  0  0  0  0  0  0  0  0  0  0
   14.2544    6.2142   19.4191 C   0  0  0  0  0  0  0  0  0  0  0  0
   13.0695    6.3705   20.0375 N   0  0  0  0  0  0  0  0  0  0  0  0
    9.1913    8.0876   21.8361 N   0  0  0  0  0  0  0  0  0  0  0  0
   10.4739    9.4813   20.2889 C   0  0  0  0  0  0  0  0  0  0  0  0
    7.5551    7.1270   23.1200 O   0  0  0  0  0  0  0  0  0  0  0  0
  1 11  4  0
  1 21  4  0
  2  4  1  0
  2  8  1  0
  2 11  1  0
  3 10  4  0
  3 14  4  0
  4  5  1  0
  4 18  2  0
  6 12  1  0
  6 17  4  0
  6 23  4  0
  7  9  1  0
  7 13  4  0
  7 19  4  0
  9 20  1  0
 10 19  4  0
 11 25  4  0
 13 14  4  0
 15 16  4  0
 15 17  4  0
 15 21  4  0
 16 24  1  0
 16 25  4  0
 20 24  1  0
 20 26  2  0
 21 23  4  0
 22 23  1  0
M  END
$$$$

 Created by Python create_sdf_string function

 26 28  0  0  0  0  0  0  0  0999 V2000
   12.4616    8.6700   19.4180 N   0  0  0  0  0  0  0  0  0  0  0  0
   11.8329   10.8148   18.6769 N   0  0  0  0  0  0  0  0  0  0  0  0
    6.1021    2.5564   21.0678 C   0  0  0  0  0  0  0  0  0  0  0  0
   10.9097   11.8051   18.4804 C   0  0  0  0  0  0  0  0  0  0  0  0
   11.2280   12.9135   17.5669 C   0  0  0  0  0  0  0  0  0  0  0  0
   12.3782    5.4231   20.7777 C   0  0  0  0  0  0  0  0  0  0  0  0
    7.7365    4.6508   21.6987 C   0  0  0  0  0  0  0  0  0  0  0  0
   13.0186   11.0102   18.0020 C   0  0  0  0  0  0  0  0  0  0  0  0
    8.6628    5.7088   21.8871 N   0  0  0  0  0  0  0  0  0  0  0  0
    5.6516    3.5258   21.9140 C   0  0  0  0  0  0  0  0  0  0  0  0
   11.5863    9.6815   19.4539 C   0  0  0  0  0  0  0  0  0  0  0  0
   12.9648    4.1543   20.9205 C   0  0  0  0  0  0  0  0  0  0  0  0
    8.2089    3.6265   20.8929 C   0  0  0  0  0  0  0  0  0  0  0  0
    7.3827    2.5724   20.5432 C   0  0  0  0  0  0  0  0  0  0  0  0
   11.1529    7.2750   20.8025 C   0  0  0  0  0  0  0  0  0  0  0  0
   10.2573    8.3215   20.9827 C   0  0  0  0  0  0  0  0  0  0  0  0
   11.1606    5.9378   21.2366 N   0  0  0  0  0  0  0  0  0  0  0  0
    9.8932   11.6736   19.0677 O   0  0  0  0  0  0  0  0  0  0  0  0
    6.4470    4.5850   22.2321 C   0  0  0  0  0  0  0  0  0  0  0  0
    8.4619    6.9895   22.2968 C   0  0  0  0  0  0  0  0  0  0  0  0
   12.2747    7.5102   20.0420 C   0  0  0  0  0  0  0  0  0  0  0  0
   14.2544    6.2142   19.4191 C   0  0  0  0  0  0  0  0  0  0  0  0
   13.0695    6.3705   20.0375 N   0  0  0  0  0  0  0  0  0  0  0  0
    9.1913    8.0876   21.8361 N   0  0  0  0  0  0  0  0  0  0  0  0
   10.4739    9.4813   20.2889 C   0  0  0  0  0  0  0  0  0  0  0  0
    7.5551    7.1270   23.1200 O   0  0  0  0  0  0  0  0  0  0  0  0
  1 11  4  0
  1 21  4  0
  2  4  1  0
  2  8  1  0
  2 11  1  0
  3 10  4  0
  3 14  4  0
  4  5  1  0
  4 18  2  0
  6 12  1  0
  6 17  4  0
  6 23  4  0
  7  9  1  0
  7 13  4  0
  7 19  4  0
  9 20  1  0
 10 19  4  0
 11 25  4  0
 13 14  4  0
 15 16  4  0
 15 17  4  0
 15 21  4  0
 16 24  1  0
 16 25  4  0
 20 24  1  0
 20 26  2  0
 21 23  4  0
 22 23  1  0
M  END
$$$$

 Created by Python create_sdf_string function

 26 28  0  0  0  0  0  0  0  0999 V2000
   12.4616    8.6700   19.4180 N   0  0  0  0  0  0  0  0  0  0  0  0
   11.8329   10.8148   18.6769 N   0  0  0  0  0  0  0  0  0  0  0  0
    6.1021    2.5564   21.0678 C   0  0  0  0  0  0  0  0  0  0  0  0
   10.9097   11.8051   18.4804 C   0  0  0  0  0  0  0  0  0  0  0  0
   11.2280   12.9135   17.5669 C   0  0  0  0  0  0  0  0  0  0  0  0
   12.3782    5.4231   20.7777 C   0  0  0  0  0  0  0  0  0  0  0  0
    7.7365    4.6508   21.6987 C   0  0  0  0  0  0  0  0  0  0  0  0
   13.0186   11.0102   18.0020 C   0  0  0  0  0  0  0  0  0  0  0  0
    8.6628    5.7088   21.8871 N   0  0  0  0  0  0  0  0  0  0  0  0
    5.6516    3.5258   21.9140 C   0  0  0  0  0  0  0  0  0  0  0  0
   11.5863    9.6815   19.4539 C   0  0  0  0  0  0  0  0  0  0  0  0
   12.9648    4.1543   20.9205 C   0  0  0  0  0  0  0  0  0  0  0  0
    8.2089    3.6265   20.8929 C   0  0  0  0  0  0  0  0  0  0  0  0
    7.3827    2.5724   20.5432 C   0  0  0  0  0  0  0  0  0  0  0  0
   11.1529    7.2750   20.8025 C   0  0  0  0  0  0  0  0  0  0  0  0
   10.2573    8.3215   20.9827 C   0  0  0  0  0  0  0  0  0  0  0  0
   11.1606    5.9378   21.2366 N   0  0  0  0  0  0  0  0  0  0  0  0
    9.8932   11.6736   19.0677 O   0  0  0  0  0  0  0  0  0  0  0  0
    6.4470    4.5850   22.2321 C   0  0  0  0  0  0  0  0  0  0  0  0
    8.4619    6.9895   22.2968 C   0  0  0  0  0  0  0  0  0  0  0  0
   12.2747    7.5102   20.0420 C   0  0  0  0  0  0  0  0  0  0  0  0
   14.2544    6.2142   19.4191 C   0  0  0  0  0  0  0  0  0  0  0  0
   13.0695    6.3705   20.0375 N   0  0  0  0  0  0  0  0  0  0  0  0
    9.1913    8.0876   21.8361 N   0  0  0  0  0  0  0  0  0  0  0  0
   10.4739    9.4813   20.2889 C   0  0  0  0  0  0  0  0  0  0  0  0
    7.5551    7.1270   23.1200 O   0  0  0  0  0  0  0  0  0  0  0  0
  1 11  4  0
  1 21  4  0
  2  4  1  0
  2  8  1  0
  2 11  1  0
  3 10  4  0
  3 14  4  0
  4  5  1  0
  4 18  2  0
  6 12  1  0
  6 17  4  0
  6 23  4  0
  7  9  1  0
  7 13  4  0
  7 19  4  0
  9 20  1  0
 10 19  4  0
 11 25  4  0
 13 14  4  0
 15 16  4  0
 15 17  4  0
 15 21  4  0
 16 24  1  0
 16 25  4  0
 20 24  1  0
 20 26  2  0
 21 23  4  0
 22 23  1  0
M  END
$$$$

 Created by Python create_sdf_string function

 26 28  0  0  0  0  0  0  0  0999 V2000
   12.4616    8.6700   19.4180 N   0  0  0  0  0  0  0  0  0  0  0  0
   11.8329   10.8148   18.6769 N   0  0  0  0  0  0  0  0  0  0  0  0
    6.1021    2.5564   21.0678 C   0  0  0  0  0  0  0  0  0  0  0  0
   10.9097   11.8051   18.4804 C   0  0  0  0  0  0  0  0  0  0  0  0
   11.2280   12.9135   17.5669 C   0  0  0  0  0  0  0  0  0  0  0  0
   12.3782    5.4231   20.7777 C   0  0  0  0  0  0  0  0  0  0  0  0
    7.7365    4.6508   21.6987 C   0  0  0  0  0  0  0  0  0  0  0  0
   13.0186   11.0102   18.0020 C   0  0  0  0  0  0  0  0  0  0  0  0
    8.6628    5.7088   21.8871 N   0  0  0  0  0  0  0  0  0  0  0  0
    5.6516    3.5258   21.9140 C   0  0  0  0  0  0  0  0  0  0  0  0
   11.5863    9.6815   19.4539 C   0  0  0  0  0  0  0  0  0  0  0  0
   12.9648    4.1543   20.9205 C   0  0  0  0  0  0  0  0  0  0  0  0
    8.2089    3.6265   20.8929 C   0  0  0  0  0  0  0  0  0  0  0  0
    7.3827    2.5724   20.5432 C   0  0  0  0  0  0  0  0  0  0  0  0
   11.1529    7.2750   20.8025 C   0  0  0  0  0  0  0  0  0  0  0  0
   10.2573    8.3215   20.9827 C   0  0  0  0  0  0  0  0  0  0  0  0
   11.1606    5.9378   21.2366 N   0  0  0  0  0  0  0  0  0  0  0  0
    9.8932   11.6736   19.0677 O   0  0  0  0  0  0  0  0  0  0  0  0
    6.4470    4.5850   22.2321 C   0  0  0  0  0  0  0  0  0  0  0  0
    8.4619    6.9895   22.2968 C   0  0  0  0  0  0  0  0  0  0  0  0
   12.2747    7.5102   20.0420 C   0  0  0  0  0  0  0  0  0  0  0  0
   14.2544    6.2142   19.4191 C   0  0  0  0  0  0  0  0  0  0  0  0
   13.0695    6.3705   20.0375 N   0  0  0  0  0  0  0  0  0  0  0  0
    9.1913    8.0876   21.8361 N   0  0  0  0  0  0  0  0  0  0  0  0
   10.4739    9.4813   20.2889 C   0  0  0  0  0  0  0  0  0  0  0  0
    7.5551    7.1270   23.1200 O   0  0  0  0  0  0  0  0  0  0  0  0
  1 11  4  0
  1 21  4  0
  2  4  1  0
  2  8  1  0
  2 11  1  0
  3 10  4  0
  3 14  4  0
  4  5  1  0
  4 18  2  0
  6 12  1  0
  6 17  4  0
  6 23  4  0
  7  9  1  0
  7 13  4  0
  7 19  4  0
  9 20  1  0
 10 19  4  0
 11 25  4  0
 13 14  4  0
 15 16  4  0
 15 17  4  0
 15 21  4  0
 16 24  1  0
 16 25  4  0
 20 24  1  0
 20 26  2  0
 21 23  4  0
 22 23  1  0
M  END
$$$$

 Created by Python create_sdf_string function

 26 28  0  0  0  0  0  0  0  0999 V2000
   12.4616    8.6700   19.4180 N   0  0  0  0  0  0  0  0  0  0  0  0
   11.8329   10.8148   18.6769 N   0  0  0  0  0  0  0  0  0  0  0  0
    6.1021    2.5564   21.0678 C   0  0  0  0  0  0  0  0  0  0  0  0
   10.9097   11.8051   18.4804 C   0  0  0  0  0  0  0  0  0  0  0  0
   11.2280   12.9135   17.5669 C   0  0  0  0  0  0  0  0  0  0  0  0
   12.3782    5.4231   20.7777 C   0  0  0  0  0  0  0  0  0  0  0  0
    7.7365    4.6508   21.6987 C   0  0  0  0  0  0  0  0  0  0  0  0
   13.0186   11.0102   18.0020 C   0  0  0  0  0  0  0  0  0  0  0  0
    8.6628    5.7088   21.8871 N   0  0  0  0  0  0  0  0  0  0  0  0
    5.6516    3.5258   21.9140 C   0  0  0  0  0  0  0  0  0  0  0  0
   11.5863    9.6815   19.4539 C   0  0  0  0  0  0  0  0  0  0  0  0
   12.9648    4.1543   20.9205 C   0  0  0  0  0  0  0  0  0  0  0  0
    8.2089    3.6265   20.8929 C   0  0  0  0  0  0  0  0  0  0  0  0
    7.3827    2.5724   20.5432 C   0  0  0  0  0  0  0  0  0  0  0  0
   11.1529    7.2750   20.8025 C   0  0  0  0  0  0  0  0  0  0  0  0
   10.2573    8.3215   20.9827 C   0  0  0  0  0  0  0  0  0  0  0  0
   11.1606    5.9378   21.2366 N   0  0  0  0  0  0  0  0  0  0  0  0
    9.8932   11.6736   19.0677 O   0  0  0  0  0  0  0  0  0  0  0  0
    6.4470    4.5850   22.2321 C   0  0  0  0  0  0  0  0  0  0  0  0
    8.4619    6.9895   22.2968 C   0  0  0  0  0  0  0  0  0  0  0  0
   12.2747    7.5102   20.0420 C   0  0  0  0  0  0  0  0  0  0  0  0
   14.2544    6.2142   19.4191 C   0  0  0  0  0  0  0  0  0  0  0  0
   13.0695    6.3705   20.0375 N   0  0  0  0  0  0  0  0  0  0  0  0
    9.1913    8.0876   21.8361 N   0  0  0  0  0  0  0  0  0  0  0  0
   10.4739    9.4813   20.2889 C   0  0  0  0  0  0  0  0  0  0  0  0
    7.5551    7.1270   23.1200 O   0  0  0  0  0  0  0  0  0  0  0  0
  1 11  4  0
  1 21  4  0
  2  4  1  0
  2  8  1  0
  2 11  1  0
  3 10  4  0
  3 14  4  0
  4  5  1  0
  4 18  2  0
  6 12  1  0
  6 17  4  0
  6 23  4  0
  7  9  1  0
  7 13  4  0
  7 19  4  0
  9 20  1  0
 10 19  4  0
 11 25  4  0
 13 14  4  0
 15 16  4  0
 15 17  4  0
 15 21  4  0
 16 24  1  0
 16 25  4  0
 20 24  1  0
 20 26  2  0
 21 23  4  0
 22 23  1  0
M  END
$$$$

 Created by Python create_sdf_string function

 26 28  0  0  0  0  0  0  0  0999 V2000
   12.4616    8.6700   19.4180 N   0  0  0  0  0  0  0  0  0  0  0  0
   11.8329   10.8148   18.6769 N   0  0  0  0  0  0  0  0  0  0  0  0
    6.1021    2.5564   21.0678 C   0  0  0  0  0  0  0  0  0  0  0  0
   10.9097   11.8051   18.4804 C   0  0  0  0  0  0  0  0  0  0  0  0
   11.2280   12.9135   17.5669 C   0  0  0  0  0  0  0  0  0  0  0  0
   12.3782    5.4231   20.7777 C   0  0  0  0  0  0  0  0  0  0  0  0
    7.7365    4.6508   21.6987 C   0  0  0  0  0  0  0  0  0  0  0  0
   13.0186   11.0102   18.0020 C   0  0  0  0  0  0  0  0  0  0  0  0
    8.6628    5.7088   21.8871 N   0  0  0  0  0  0  0  0  0  0  0  0
    5.6516    3.5258   21.9140 C   0  0  0  0  0  0  0  0  0  0  0  0
   11.5863    9.6815   19.4539 C   0  0  0  0  0  0  0  0  0  0  0  0
   12.9648    4.1543   20.9205 C   0  0  0  0  0  0  0  0  0  0  0  0
    8.2089    3.6265   20.8929 C   0  0  0  0  0  0  0  0  0  0  0  0
    7.3827    2.5724   20.5432 C   0  0  0  0  0  0  0  0  0  0  0  0
   11.1529    7.2750   20.8025 C   0  0  0  0  0  0  0  0  0  0  0  0
   10.2573    8.3215   20.9827 C   0  0  0  0  0  0  0  0  0  0  0  0
   11.1606    5.9378   21.2366 N   0  0  0  0  0  0  0  0  0  0  0  0
    9.8932   11.6736   19.0677 O   0  0  0  0  0  0  0  0  0  0  0  0
    6.4470    4.5850   22.2321 C   0  0  0  0  0  0  0  0  0  0  0  0
    8.4619    6.9895   22.2968 C   0  0  0  0  0  0  0  0  0  0  0  0
   12.2747    7.5102   20.0420 C   0  0  0  0  0  0  0  0  0  0  0  0
   14.2544    6.2142   19.4191 C   0  0  0  0  0  0  0  0  0  0  0  0
   13.0695    6.3705   20.0375 N   0  0  0  0  0  0  0  0  0  0  0  0
    9.1913    8.0876   21.8361 N   0  0  0  0  0  0  0  0  0  0  0  0
   10.4739    9.4813   20.2889 C   0  0  0  0  0  0  0  0  0  0  0  0
    7.5551    7.1270   23.1200 O   0  0  0  0  0  0  0  0  0  0  0  0
  1 11  4  0
  1 21  4  0
  2  4  1  0
  2  8  1  0
  2 11  1  0
  3 10  4  0
  3 14  4  0
  4  5  1  0
  4 18  2  0
  6 12  1  0
  6 17  4  0
  6 23  4  0
  7  9  1  0
  7 13  4  0
  7 19  4  0
  9 20  1  0
 10 19  4  0
 11 25  4  0
 13 14  4  0
 15 16  4  0
 15 17  4  0
 15 21  4  0
 16 24  1  0
 16 25  4  0
 20 24  1  0
 20 26  2  0
 21 23  4  0
 22 23  1  0
M  END
$$$$

 Created by Python create_sdf_string function

 26 28  0  0  0  0  0  0  0  0999 V2000
   12.4616    8.6700   19.4180 N   0  0  0  0  0  0  0  0  0  0  0  0
   11.8329   10.8148   18.6769 N   0  0  0  0  0  0  0  0  0  0  0  0
    6.1021    2.5564   21.0678 C   0  0  0  0  0  0  0  0  0  0  0  0
   10.9097   11.8051   18.4804 C   0  0  0  0  0  0  0  0  0  0  0  0
   11.2280   12.9135   17.5669 C   0  0  0  0  0  0  0  0  0  0  0  0
   12.3782    5.4231   20.7777 C   0  0  0  0  0  0  0  0  0  0  0  0
    7.7365    4.6508   21.6987 C   0  0  0  0  0  0  0  0  0  0  0  0
   13.0186   11.0102   18.0020 C   0  0  0  0  0  0  0  0  0  0  0  0
    8.6628    5.7088   21.8871 N   0  0  0  0  0  0  0  0  0  0  0  0
    5.6516    3.5258   21.9140 C   0  0  0  0  0  0  0  0  0  0  0  0
   11.5863    9.6815   19.4539 C   0  0  0  0  0  0  0  0  0  0  0  0
   12.9648    4.1543   20.9205 C   0  0  0  0  0  0  0  0  0  0  0  0
    8.2089    3.6265   20.8929 C   0  0  0  0  0  0  0  0  0  0  0  0
    7.3827    2.5724   20.5432 C   0  0  0  0  0  0  0  0  0  0  0  0
   11.1529    7.2750   20.8025 C   0  0  0  0  0  0  0  0  0  0  0  0
   10.2573    8.3215   20.9827 C   0  0  0  0  0  0  0  0  0  0  0  0
   11.1606    5.9378   21.2366 N   0  0  0  0  0  0  0  0  0  0  0  0
    9.8932   11.6736   19.0677 O   0  0  0  0  0  0  0  0  0  0  0  0
    6.4470    4.5850   22.2321 C   0  0  0  0  0  0  0  0  0  0  0  0
    8.4619    6.9895   22.2968 C   0  0  0  0  0  0  0  0  0  0  0  0
   12.2747    7.5102   20.0420 C   0  0  0  0  0  0  0  0  0  0  0  0
   14.2544    6.2142   19.4191 C   0  0  0  0  0  0  0  0  0  0  0  0
   13.0695    6.3705   20.0375 N   0  0  0  0  0  0  0  0  0  0  0  0
    9.1913    8.0876   21.8361 N   0  0  0  0  0  0  0  0  0  0  0  0
   10.4739    9.4813   20.2889 C   0  0  0  0  0  0  0  0  0  0  0  0
    7.5551    7.1270   23.1200 O   0  0  0  0  0  0  0  0  0  0  0  0
  1 11  4  0
  1 21  4  0
  2  4  1  0
  2  8  1  0
  2 11  1  0
  3 10  4  0
  3 14  4  0
  4  5  1  0
  4 18  2  0
  6 12  1  0
  6 17  4  0
  6 23  4  0
  7  9  1  0
  7 13  4  0
  7 19  4  0
  9 20  1  0
 10 19  4  0
 11 25  4  0
 13 14  4  0
 15 16  4  0
 15 17  4  0
 15 21  4  0
 16 24  1  0
 16 25  4  0
 20 24  1  0
 20 26  2  0
 21 23  4  0
 22 23  1  0
M  END
$$$$

 Created by Python create_sdf_string function

 26 28  0  0  0  0  0  0  0  0999 V2000
   12.4616    8.6700   19.4180 N   0  0  0  0  0  0  0  0  0  0  0  0
   11.8329   10.8148   18.6769 N   0  0  0  0  0  0  0  0  0  0  0  0
    6.1021    2.5564   21.0678 C   0  0  0  0  0  0  0  0  0  0  0  0
   10.9097   11.8051   18.4804 C   0  0  0  0  0  0  0  0  0  0  0  0
   11.2280   12.9135   17.5669 C   0  0  0  0  0  0  0  0  0  0  0  0
   12.3782    5.4231   20.7777 C   0  0  0  0  0  0  0  0  0  0  0  0
    7.7365    4.6508   21.6987 C   0  0  0  0  0  0  0  0  0  0  0  0
   13.0186   11.0102   18.0020 C   0  0  0  0  0  0  0  0  0  0  0  0
    8.6628    5.7088   21.8871 N   0  0  0  0  0  0  0  0  0  0  0  0
    5.6516    3.5258   21.9140 C   0  0  0  0  0  0  0  0  0  0  0  0
   11.5863    9.6815   19.4539 C   0  0  0  0  0  0  0  0  0  0  0  0
   12.9648    4.1543   20.9205 C   0  0  0  0  0  0  0  0  0  0  0  0
    8.2089    3.6265   20.8929 C   0  0  0  0  0  0  0  0  0  0  0  0
    7.3827    2.5724   20.5432 C   0  0  0  0  0  0  0  0  0  0  0  0
   11.1529    7.2750   20.8025 C   0  0  0  0  0  0  0  0  0  0  0  0
   10.2573    8.3215   20.9827 C   0  0  0  0  0  0  0  0  0  0  0  0
   11.1606    5.9378   21.2366 N   0  0  0  0  0  0  0  0  0  0  0  0
    9.8932   11.6736   19.0677 O   0  0  0  0  0  0  0  0  0  0  0  0
    6.4470    4.5850   22.2321 C   0  0  0  0  0  0  0  0  0  0  0  0
    8.4619    6.9895   22.2968 C   0  0  0  0  0  0  0  0  0  0  0  0
   12.2747    7.5102   20.0420 C   0  0  0  0  0  0  0  0  0  0  0  0
   14.2544    6.2142   19.4191 C   0  0  0  0  0  0  0  0  0  0  0  0
   13.0695    6.3705   20.0375 N   0  0  0  0  0  0  0  0  0  0  0  0
    9.1913    8.0876   21.8361 N   0  0  0  0  0  0  0  0  0  0  0  0
   10.4739    9.4813   20.2889 C   0  0  0  0  0  0  0  0  0  0  0  0
    7.5551    7.1270   23.1200 O   0  0  0  0  0  0  0  0  0  0  0  0
  1 11  4  0
  1 21  4  0
  2  4  1  0
  2  8  1  0
  2 11  1  0
  3 10  4  0
  3 14  4  0
  4  5  1  0
  4 18  2  0
  6 12  1  0
  6 17  4  0
  6 23  4  0
  7  9  1  0
  7 13  4  0
  7 19  4  0
  9 20  1  0
 10 19  4  0
 11 25  4  0
 13 14  4  0
 15 16  4  0
 15 17  4  0
 15 21  4  0
 16 24  1  0
 16 25  4  0
 20 24  1  0
 20 26  2  0
 21 23  4  0
 22 23  1  0
M  END
$$$$

 Created by Python create_sdf_string function

 26 28  0  0  0  0  0  0  0  0999 V2000
   12.4616    8.6700   19.4180 N   0  0  0  0  0  0  0  0  0  0  0  0
   11.8329   10.8148   18.6769 N   0  0  0  0  0  0  0  0  0  0  0  0
    6.1021    2.5564   21.0678 C   0  0  0  0  0  0  0  0  0  0  0  0
   10.9097   11.8051   18.4804 C   0  0  0  0  0  0  0  0  0  0  0  0
   11.2280   12.9135   17.5669 C   0  0  0  0  0  0  0  0  0  0  0  0
   12.3782    5.4231   20.7777 C   0  0  0  0  0  0  0  0  0  0  0  0
    7.7365    4.6508   21.6987 C   0  0  0  0  0  0  0  0  0  0  0  0
   13.0186   11.0102   18.0020 C   0  0  0  0  0  0  0  0  0  0  0  0
    8.6628    5.7088   21.8871 N   0  0  0  0  0  0  0  0  0  0  0  0
    5.6516    3.5258   21.9140 C   0  0  0  0  0  0  0  0  0  0  0  0
   11.5863    9.6815   19.4539 C   0  0  0  0  0  0  0  0  0  0  0  0
   12.9648    4.1543   20.9205 C   0  0  0  0  0  0  0  0  0  0  0  0
    8.2089    3.6265   20.8929 C   0  0  0  0  0  0  0  0  0  0  0  0
    7.3827    2.5724   20.5432 C   0  0  0  0  0  0  0  0  0  0  0  0
   11.1529    7.2750   20.8025 C   0  0  0  0  0  0  0  0  0  0  0  0
   10.2573    8.3215   20.9827 C   0  0  0  0  0  0  0  0  0  0  0  0
   11.1606    5.9378   21.2366 N   0  0  0  0  0  0  0  0  0  0  0  0
    9.8932   11.6736   19.0677 O   0  0  0  0  0  0  0  0  0  0  0  0
    6.4470    4.5850   22.2321 C   0  0  0  0  0  0  0  0  0  0  0  0
    8.4619    6.9895   22.2968 C   0  0  0  0  0  0  0  0  0  0  0  0
   12.2747    7.5102   20.0420 C   0  0  0  0  0  0  0  0  0  0  0  0
   14.2544    6.2142   19.4191 C   0  0  0  0  0  0  0  0  0  0  0  0
   13.0695    6.3705   20.0375 N   0  0  0  0  0  0  0  0  0  0  0  0
    9.1913    8.0876   21.8361 N   0  0  0  0  0  0  0  0  0  0  0  0
   10.4739    9.4813   20.2889 C   0  0  0  0  0  0  0  0  0  0  0  0
    7.5551    7.1270   23.1200 O   0  0  0  0  0  0  0  0  0  0  0  0
  1 11  4  0
  1 21  4  0
  2  4  1  0
  2  8  1  0
  2 11  1  0
  3 10  4  0
  3 14  4  0
  4  5  1  0
  4 18  2  0
  6 12  1  0
  6 17  4  0
  6 23  4  0
  7  9  1  0
  7 13  4  0
  7 19  4  0
  9 20  1  0
 10 19  4  0
 11 25  4  0
 13 14  4  0
 15 16  4  0
 15 17  4  0
 15 21  4  0
 16 24  1  0
 16 25  4  0
 20 24  1  0
 20 26  2  0
 21 23  4  0
 22 23  1  0
M  END
$$$$

 Created by Python create_sdf_string function

 26 28  0  0  0  0  0  0  0  0999 V2000
   12.4616    8.6700   19.4180 N   0  0  0  0  0  0  0  0  0  0  0  0
   11.8329   10.8148   18.6769 N   0  0  0  0  0  0  0  0  0  0  0  0
    6.1021    2.5564   21.0678 C   0  0  0  0  0  0  0  0  0  0  0  0
   10.9097   11.8051   18.4804 C   0  0  0  0  0  0  0  0  0  0  0  0
   11.2280   12.9135   17.5669 C   0  0  0  0  0  0  0  0  0  0  0  0
   12.3782    5.4231   20.7777 C   0  0  0  0  0  0  0  0  0  0  0  0
    7.7365    4.6508   21.6987 C   0  0  0  0  0  0  0  0  0  0  0  0
   13.0186   11.0102   18.0020 C   0  0  0  0  0  0  0  0  0  0  0  0
    8.6628    5.7088   21.8871 N   0  0  0  0  0  0  0  0  0  0  0  0
    5.6516    3.5258   21.9140 C   0  0  0  0  0  0  0  0  0  0  0  0
   11.5863    9.6815   19.4539 C   0  0  0  0  0  0  0  0  0  0  0  0
   12.9648    4.1543   20.9205 C   0  0  0  0  0  0  0  0  0  0  0  0
    8.2089    3.6265   20.8929 C   0  0  0  0  0  0  0  0  0  0  0  0
    7.3827    2.5724   20.5432 C   0  0  0  0  0  0  0  0  0  0  0  0
   11.1529    7.2750   20.8025 C   0  0  0  0  0  0  0  0  0  0  0  0
   10.2573    8.3215   20.9827 C   0  0  0  0  0  0  0  0  0  0  0  0
   11.1606    5.9378   21.2366 N   0  0  0  0  0  0  0  0  0  0  0  0
    9.8932   11.6736   19.0677 O   0  0  0  0  0  0  0  0  0  0  0  0
    6.4470    4.5850   22.2321 C   0  0  0  0  0  0  0  0  0  0  0  0
    8.4619    6.9895   22.2968 C   0  0  0  0  0  0  0  0  0  0  0  0
   12.2747    7.5102   20.0420 C   0  0  0  0  0  0  0  0  0  0  0  0
   14.2544    6.2142   19.4191 C   0  0  0  0  0  0  0  0  0  0  0  0
   13.0695    6.3705   20.0375 N   0  0  0  0  0  0  0  0  0  0  0  0
    9.1913    8.0876   21.8361 N   0  0  0  0  0  0  0  0  0  0  0  0
   10.4739    9.4813   20.2889 C   0  0  0  0  0  0  0  0  0  0  0  0
    7.5551    7.1270   23.1200 O   0  0  0  0  0  0  0  0  0  0  0  0
  1 11  4  0
  1 21  4  0
  2  4  1  0
  2  8  1  0
  2 11  1  0
  3 10  4  0
  3 14  4  0
  4  5  1  0
  4 18  2  0
  6 12  1  0
  6 17  4  0
  6 23  4  0
  7  9  1  0
  7 13  4  0
  7 19  4  0
  9 20  1  0
 10 19  4  0
 11 25  4  0
 13 14  4  0
 15 16  4  0
 15 17  4  0
 15 21  4  0
 16 24  1  0
 16 25  4  0
 20 24  1  0
 20 26  2  0
 21 23  4  0
 22 23  1  0
M  END
$$$$

 Created by Python create_sdf_string function

 26 28  0  0  0  0  0  0  0  0999 V2000
   12.4616    8.6700   19.4180 N   0  0  0  0  0  0  0  0  0  0  0  0
   11.8329   10.8148   18.6769 N   0  0  0  0  0  0  0  0  0  0  0  0
    6.1021    2.5564   21.0678 C   0  0  0  0  0  0  0  0  0  0  0  0
   10.9097   11.8051   18.4804 C   0  0  0  0  0  0  0  0  0  0  0  0
   11.2280   12.9135   17.5669 C   0  0  0  0  0  0  0  0  0  0  0  0
   12.3782    5.4231   20.7777 C   0  0  0  0  0  0  0  0  0  0  0  0
    7.7365    4.6508   21.6987 C   0  0  0  0  0  0  0  0  0  0  0  0
   13.0186   11.0102   18.0020 C   0  0  0  0  0  0  0  0  0  0  0  0
    8.6628    5.7088   21.8871 N   0  0  0  0  0  0  0  0  0  0  0  0
    5.6516    3.5258   21.9140 C   0  0  0  0  0  0  0  0  0  0  0  0
   11.5863    9.6815   19.4539 C   0  0  0  0  0  0  0  0  0  0  0  0
   12.9648    4.1543   20.9205 C   0  0  0  0  0  0  0  0  0  0  0  0
    8.2089    3.6265   20.8929 C   0  0  0  0  0  0  0  0  0  0  0  0
    7.3827    2.5724   20.5432 C   0  0  0  0  0  0  0  0  0  0  0  0
   11.1529    7.2750   20.8025 C   0  0  0  0  0  0  0  0  0  0  0  0
   10.2573    8.3215   20.9827 C   0  0  0  0  0  0  0  0  0  0  0  0
   11.1606    5.9378   21.2366 N   0  0  0  0  0  0  0  0  0  0  0  0
    9.8932   11.6736   19.0677 O   0  0  0  0  0  0  0  0  0  0  0  0
    6.4470    4.5850   22.2321 C   0  0  0  0  0  0  0  0  0  0  0  0
    8.4619    6.9895   22.2968 C   0  0  0  0  0  0  0  0  0  0  0  0
   12.2747    7.5102   20.0420 C   0  0  0  0  0  0  0  0  0  0  0  0
   14.2544    6.2142   19.4191 C   0  0  0  0  0  0  0  0  0  0  0  0
   13.0695    6.3705   20.0375 N   0  0  0  0  0  0  0  0  0  0  0  0
    9.1913    8.0876   21.8361 N   0  0  0  0  0  0  0  0  0  0  0  0
   10.4739    9.4813   20.2889 C   0  0  0  0  0  0  0  0  0  0  0  0
    7.5551    7.1270   23.1200 O   0  0  0  0  0  0  0  0  0  0  0  0
  1 11  4  0
  1 21  4  0
  2  4  1  0
  2  8  1  0
  2 11  1  0
  3 10  4  0
  3 14  4  0
  4  5  1  0
  4 18  2  0
  6 12  1  0
  6 17  4  0
  6 23  4  0
  7  9  1  0
  7 13  4  0
  7 19  4  0
  9 20  1  0
 10 19  4  0
 11 25  4  0
 13 14  4  0
 15 16  4  0
 15 17  4  0
 15 21  4  0
 16 24  1  0
 16 25  4  0
 20 24  1  0
 20 26  2  0
 21 23  4  0
 22 23  1  0
M  END
$$$$

 Created by Python create_sdf_string function

 26 28  0  0  0  0  0  0  0  0999 V2000
   12.4616    8.6700   19.4180 N   0  0  0  0  0  0  0  0  0  0  0  0
   11.8329   10.8148   18.6769 N   0  0  0  0  0  0  0  0  0  0  0  0
    6.1021    2.5564   21.0678 C   0  0  0  0  0  0  0  0  0  0  0  0
   10.9097   11.8051   18.4804 C   0  0  0  0  0  0  0  0  0  0  0  0
   11.2280   12.9135   17.5669 C   0  0  0  0  0  0  0  0  0  0  0  0
   12.3782    5.4231   20.7777 C   0  0  0  0  0  0  0  0  0  0  0  0
    7.7365    4.6508   21.6987 C   0  0  0  0  0  0  0  0  0  0  0  0
   13.0186   11.0102   18.0020 C   0  0  0  0  0  0  0  0  0  0  0  0
    8.6628    5.7088   21.8871 N   0  0  0  0  0  0  0  0  0  0  0  0
    5.6516    3.5258   21.9140 C   0  0  0  0  0  0  0  0  0  0  0  0
   11.5863    9.6815   19.4539 C   0  0  0  0  0  0  0  0  0  0  0  0
   12.9648    4.1543   20.9205 C   0  0  0  0  0  0  0  0  0  0  0  0
    8.2089    3.6265   20.8929 C   0  0  0  0  0  0  0  0  0  0  0  0
    7.3827    2.5724   20.5432 C   0  0  0  0  0  0  0  0  0  0  0  0
   11.1529    7.2750   20.8025 C   0  0  0  0  0  0  0  0  0  0  0  0
   10.2573    8.3215   20.9827 C   0  0  0  0  0  0  0  0  0  0  0  0
   11.1606    5.9378   21.2366 N   0  0  0  0  0  0  0  0  0  0  0  0
    9.8932   11.6736   19.0677 O   0  0  0  0  0  0  0  0  0  0  0  0
    6.4470    4.5850   22.2321 C   0  0  0  0  0  0  0  0  0  0  0  0
    8.4619    6.9895   22.2968 C   0  0  0  0  0  0  0  0  0  0  0  0
   12.2747    7.5102   20.0420 C   0  0  0  0  0  0  0  0  0  0  0  0
   14.2544    6.2142   19.4191 C   0  0  0  0  0  0  0  0  0  0  0  0
   13.0695    6.3705   20.0375 N   0  0  0  0  0  0  0  0  0  0  0  0
    9.1913    8.0876   21.8361 N   0  0  0  0  0  0  0  0  0  0  0  0
   10.4739    9.4813   20.2889 C   0  0  0  0  0  0  0  0  0  0  0  0
    7.5551    7.1270   23.1200 O   0  0  0  0  0  0  0  0  0  0  0  0
  1 11  4  0
  1 21  4  0
  2  4  1  0
  2  8  1  0
  2 11  1  0
  3 10  4  0
  3 14  4  0
  4  5  1  0
  4 18  2  0
  6 12  1  0
  6 17  4  0
  6 23  4  0
  7  9  1  0
  7 13  4  0
  7 19  4  0
  9 20  1  0
 10 19  4  0
 11 25  4  0
 13 14  4  0
 15 16  4  0
 15 17  4  0
 15 21  4  0
 16 24  1  0
 16 25  4  0
 20 24  1  0
 20 26  2  0
 21 23  4  0
 22 23  1  0
M  END
$$$$

 Created by Python create_sdf_string function

 26 28  0  0  0  0  0  0  0  0999 V2000
   12.4616    8.6700   19.4180 N   0  0  0  0  0  0  0  0  0  0  0  0
   11.8329   10.8148   18.6769 N   0  0  0  0  0  0  0  0  0  0  0  0
    6.1021    2.5564   21.0678 C   0  0  0  0  0  0  0  0  0  0  0  0
   10.9097   11.8051   18.4804 C   0  0  0  0  0  0  0  0  0  0  0  0
   11.2280   12.9135   17.5669 C   0  0  0  0  0  0  0  0  0  0  0  0
   12.3782    5.4231   20.7777 C   0  0  0  0  0  0  0  0  0  0  0  0
    7.7365    4.6508   21.6987 C   0  0  0  0  0  0  0  0  0  0  0  0
   13.0186   11.0102   18.0020 C   0  0  0  0  0  0  0  0  0  0  0  0
    8.6628    5.7088   21.8871 N   0  0  0  0  0  0  0  0  0  0  0  0
    5.6516    3.5258   21.9140 C   0  0  0  0  0  0  0  0  0  0  0  0
   11.5863    9.6815   19.4539 C   0  0  0  0  0  0  0  0  0  0  0  0
   12.9648    4.1543   20.9205 C   0  0  0  0  0  0  0  0  0  0  0  0
    8.2089    3.6265   20.8929 C   0  0  0  0  0  0  0  0  0  0  0  0
    7.3827    2.5724   20.5432 C   0  0  0  0  0  0  0  0  0  0  0  0
   11.1529    7.2750   20.8025 C   0  0  0  0  0  0  0  0  0  0  0  0
   10.2573    8.3215   20.9827 C   0  0  0  0  0  0  0  0  0  0  0  0
   11.1606    5.9378   21.2366 N   0  0  0  0  0  0  0  0  0  0  0  0
    9.8932   11.6736   19.0677 O   0  0  0  0  0  0  0  0  0  0  0  0
    6.4470    4.5850   22.2321 C   0  0  0  0  0  0  0  0  0  0  0  0
    8.4619    6.9895   22.2968 C   0  0  0  0  0  0  0  0  0  0  0  0
   12.2747    7.5102   20.0420 C   0  0  0  0  0  0  0  0  0  0  0  0
   14.2544    6.2142   19.4191 C   0  0  0  0  0  0  0  0  0  0  0  0
   13.0695    6.3705   20.0375 N   0  0  0  0  0  0  0  0  0  0  0  0
    9.1913    8.0876   21.8361 N   0  0  0  0  0  0  0  0  0  0  0  0
   10.4739    9.4813   20.2889 C   0  0  0  0  0  0  0  0  0  0  0  0
    7.5551    7.1270   23.1200 O   0  0  0  0  0  0  0  0  0  0  0  0
  1 11  4  0
  1 21  4  0
  2  4  1  0
  2  8  1  0
  2 11  1  0
  3 10  4  0
  3 14  4  0
  4  5  1  0
  4 18  2  0
  6 12  1  0
  6 17  4  0
  6 23  4  0
  7  9  1  0
  7 13  4  0
  7 19  4  0
  9 20  1  0
 10 19  4  0
 11 25  4  0
 13 14  4  0
 15 16  4  0
 15 17  4  0
 15 21  4  0
 16 24  1  0
 16 25  4  0
 20 24  1  0
 20 26  2  0
 21 23  4  0
 22 23  1  0
M  END
$$$$

 Created by Python create_sdf_string function

 26 28  0  0  0  0  0  0  0  0999 V2000
   12.4616    8.6700   19.4180 N   0  0  0  0  0  0  0  0  0  0  0  0
   11.8329   10.8148   18.6769 N   0  0  0  0  0  0  0  0  0  0  0  0
    6.1021    2.5564   21.0678 C   0  0  0  0  0  0  0  0  0  0  0  0
   10.9097   11.8051   18.4804 C   0  0  0  0  0  0  0  0  0  0  0  0
   11.2280   12.9135   17.5669 C   0  0  0  0  0  0  0  0  0  0  0  0
   12.3782    5.4231   20.7777 C   0  0  0  0  0  0  0  0  0  0  0  0
    7.7365    4.6508   21.6987 C   0  0  0  0  0  0  0  0  0  0  0  0
   13.0186   11.0102   18.0020 C   0  0  0  0  0  0  0  0  0  0  0  0
    8.6628    5.7088   21.8871 N   0  0  0  0  0  0  0  0  0  0  0  0
    5.6516    3.5258   21.9140 C   0  0  0  0  0  0  0  0  0  0  0  0
   11.5863    9.6815   19.4539 C   0  0  0  0  0  0  0  0  0  0  0  0
   12.9648    4.1543   20.9205 C   0  0  0  0  0  0  0  0  0  0  0  0
    8.2089    3.6265   20.8929 C   0  0  0  0  0  0  0  0  0  0  0  0
    7.3827    2.5724   20.5432 C   0  0  0  0  0  0  0  0  0  0  0  0
   11.1529    7.2750   20.8025 C   0  0  0  0  0  0  0  0  0  0  0  0
   10.2573    8.3215   20.9827 C   0  0  0  0  0  0  0  0  0  0  0  0
   11.1606    5.9378   21.2366 N   0  0  0  0  0  0  0  0  0  0  0  0
    9.8932   11.6736   19.0677 O   0  0  0  0  0  0  0  0  0  0  0  0
    6.4470    4.5850   22.2321 C   0  0  0  0  0  0  0  0  0  0  0  0
    8.4619    6.9895   22.2968 C   0  0  0  0  0  0  0  0  0  0  0  0
   12.2747    7.5102   20.0420 C   0  0  0  0  0  0  0  0  0  0  0  0
   14.2544    6.2142   19.4191 C   0  0  0  0  0  0  0  0  0  0  0  0
   13.0695    6.3705   20.0375 N   0  0  0  0  0  0  0  0  0  0  0  0
    9.1913    8.0876   21.8361 N   0  0  0  0  0  0  0  0  0  0  0  0
   10.4739    9.4813   20.2889 C   0  0  0  0  0  0  0  0  0  0  0  0
    7.5551    7.1270   23.1200 O   0  0  0  0  0  0  0  0  0  0  0  0
  1 11  4  0
  1 21  4  0
  2  4  1  0
  2  8  1  0
  2 11  1  0
  3 10  4  0
  3 14  4  0
  4  5  1  0
  4 18  2  0
  6 12  1  0
  6 17  4  0
  6 23  4  0
  7  9  1  0
  7 13  4  0
  7 19  4  0
  9 20  1  0
 10 19  4  0
 11 25  4  0
 13 14  4  0
 15 16  4  0
 15 17  4  0
 15 21  4  0
 16 24  1  0
 16 25  4  0
 20 24  1  0
 20 26  2  0
 21 23  4  0
 22 23  1  0
M  END
$$$$

 Created by Python create_sdf_string function

 26 28  0  0  0  0  0  0  0  0999 V2000
   12.4616    8.6700   19.4180 N   0  0  0  0  0  0  0  0  0  0  0  0
   11.8329   10.8148   18.6769 N   0  0  0  0  0  0  0  0  0  0  0  0
    6.1021    2.5564   21.0678 C   0  0  0  0  0  0  0  0  0  0  0  0
   10.9097   11.8051   18.4804 C   0  0  0  0  0  0  0  0  0  0  0  0
   11.2280   12.9135   17.5669 C   0  0  0  0  0  0  0  0  0  0  0  0
   12.3782    5.4231   20.7777 C   0  0  0  0  0  0  0  0  0  0  0  0
    7.7365    4.6508   21.6987 C   0  0  0  0  0  0  0  0  0  0  0  0
   13.0186   11.0102   18.0020 C   0  0  0  0  0  0  0  0  0  0  0  0
    8.6628    5.7088   21.8871 N   0  0  0  0  0  0  0  0  0  0  0  0
    5.6516    3.5258   21.9140 C   0  0  0  0  0  0  0  0  0  0  0  0
   11.5863    9.6815   19.4539 C   0  0  0  0  0  0  0  0  0  0  0  0
   12.9648    4.1543   20.9205 C   0  0  0  0  0  0  0  0  0  0  0  0
    8.2089    3.6265   20.8929 C   0  0  0  0  0  0  0  0  0  0  0  0
    7.3827    2.5724   20.5432 C   0  0  0  0  0  0  0  0  0  0  0  0
   11.1529    7.2750   20.8025 C   0  0  0  0  0  0  0  0  0  0  0  0
   10.2573    8.3215   20.9827 C   0  0  0  0  0  0  0  0  0  0  0  0
   11.1606    5.9378   21.2366 N   0  0  0  0  0  0  0  0  0  0  0  0
    9.8932   11.6736   19.0677 O   0  0  0  0  0  0  0  0  0  0  0  0
    6.4470    4.5850   22.2321 C   0  0  0  0  0  0  0  0  0  0  0  0
    8.4619    6.9895   22.2968 C   0  0  0  0  0  0  0  0  0  0  0  0
   12.2747    7.5102   20.0420 C   0  0  0  0  0  0  0  0  0  0  0  0
   14.2544    6.2142   19.4191 C   0  0  0  0  0  0  0  0  0  0  0  0
   13.0695    6.3705   20.0375 N   0  0  0  0  0  0  0  0  0  0  0  0
    9.1913    8.0876   21.8361 N   0  0  0  0  0  0  0  0  0  0  0  0
   10.4739    9.4813   20.2889 C   0  0  0  0  0  0  0  0  0  0  0  0
    7.5551    7.1270   23.1200 O   0  0  0  0  0  0  0  0  0  0  0  0
  1 11  4  0
  1 21  4  0
  2  4  1  0
  2  8  1  0
  2 11  1  0
  3 10  4  0
  3 14  4  0
  4  5  1  0
  4 18  2  0
  6 12  1  0
  6 17  4  0
  6 23  4  0
  7  9  1  0
  7 13  4  0
  7 19  4  0
  9 20  1  0
 10 19  4  0
 11 25  4  0
 13 14  4  0
 15 16  4  0
 15 17  4  0
 15 21  4  0
 16 24  1  0
 16 25  4  0
 20 24  1  0
 20 26  2  0
 21 23  4  0
 22 23  1  0
M  END
$$$$

 Created by Python create_sdf_string function

 26 28  0  0  0  0  0  0  0  0999 V2000
   12.4616    8.6700   19.4180 N   0  0  0  0  0  0  0  0  0  0  0  0
   11.8329   10.8148   18.6769 N   0  0  0  0  0  0  0  0  0  0  0  0
    6.1021    2.5564   21.0678 C   0  0  0  0  0  0  0  0  0  0  0  0
   10.9097   11.8051   18.4804 C   0  0  0  0  0  0  0  0  0  0  0  0
   11.2280   12.9135   17.5669 C   0  0  0  0  0  0  0  0  0  0  0  0
   12.3782    5.4231   20.7777 C   0  0  0  0  0  0  0  0  0  0  0  0
    7.7365    4.6508   21.6987 C   0  0  0  0  0  0  0  0  0  0  0  0
   13.0186   11.0102   18.0020 C   0  0  0  0  0  0  0  0  0  0  0  0
    8.6628    5.7088   21.8871 N   0  0  0  0  0  0  0  0  0  0  0  0
    5.6516    3.5258   21.9140 C   0  0  0  0  0  0  0  0  0  0  0  0
   11.5863    9.6815   19.4539 C   0  0  0  0  0  0  0  0  0  0  0  0
   12.9648    4.1543   20.9205 C   0  0  0  0  0  0  0  0  0  0  0  0
    8.2089    3.6265   20.8929 C   0  0  0  0  0  0  0  0  0  0  0  0
    7.3827    2.5724   20.5432 C   0  0  0  0  0  0  0  0  0  0  0  0
   11.1529    7.2750   20.8025 C   0  0  0  0  0  0  0  0  0  0  0  0
   10.2573    8.3215   20.9827 C   0  0  0  0  0  0  0  0  0  0  0  0
   11.1606    5.9378   21.2366 N   0  0  0  0  0  0  0  0  0  0  0  0
    9.8932   11.6736   19.0677 O   0  0  0  0  0  0  0  0  0  0  0  0
    6.4470    4.5850   22.2321 C   0  0  0  0  0  0  0  0  0  0  0  0
    8.4619    6.9895   22.2968 C   0  0  0  0  0  0  0  0  0  0  0  0
   12.2747    7.5102   20.0420 C   0  0  0  0  0  0  0  0  0  0  0  0
   14.2544    6.2142   19.4191 C   0  0  0  0  0  0  0  0  0  0  0  0
   13.0695    6.3705   20.0375 N   0  0  0  0  0  0  0  0  0  0  0  0
    9.1913    8.0876   21.8361 N   0  0  0  0  0  0  0  0  0  0  0  0
   10.4739    9.4813   20.2889 C   0  0  0  0  0  0  0  0  0  0  0  0
    7.5551    7.1270   23.1200 O   0  0  0  0  0  0  0  0  0  0  0  0
  1 11  4  0
  1 21  4  0
  2  4  1  0
  2  8  1  0
  2 11  1  0
  3 10  4  0
  3 14  4  0
  4  5  1  0
  4 18  2  0
  6 12  1  0
  6 17  4  0
  6 23  4  0
  7  9  1  0
  7 13  4  0
  7 19  4  0
  9 20  1  0
 10 19  4  0
 11 25  4  0
 13 14  4  0
 15 16  4  0
 15 17  4  0
 15 21  4  0
 16 24  1  0
 16 25  4  0
 20 24  1  0
 20 26  2  0
 21 23  4  0
 22 23  1  0
M  END
$$$$

 Created by Python create_sdf_string function

 26 28  0  0  0  0  0  0  0  0999 V2000
   12.4616    8.6700   19.4180 N   0  0  0  0  0  0  0  0  0  0  0  0
   11.8329   10.8148   18.6769 N   0  0  0  0  0  0  0  0  0  0  0  0
    6.1021    2.5564   21.0678 C   0  0  0  0  0  0  0  0  0  0  0  0
   10.9097   11.8051   18.4804 C   0  0  0  0  0  0  0  0  0  0  0  0
   11.2280   12.9135   17.5669 C   0  0  0  0  0  0  0  0  0  0  0  0
   12.3782    5.4231   20.7777 C   0  0  0  0  0  0  0  0  0  0  0  0
    7.7365    4.6508   21.6987 C   0  0  0  0  0  0  0  0  0  0  0  0
   13.0186   11.0102   18.0020 C   0  0  0  0  0  0  0  0  0  0  0  0
    8.6628    5.7088   21.8871 N   0  0  0  0  0  0  0  0  0  0  0  0
    5.6516    3.5258   21.9140 C   0  0  0  0  0  0  0  0  0  0  0  0
   11.5863    9.6815   19.4539 C   0  0  0  0  0  0  0  0  0  0  0  0
   12.9648    4.1543   20.9205 C   0  0  0  0  0  0  0  0  0  0  0  0
    8.2089    3.6265   20.8929 C   0  0  0  0  0  0  0  0  0  0  0  0
    7.3827    2.5724   20.5432 C   0  0  0  0  0  0  0  0  0  0  0  0
   11.1529    7.2750   20.8025 C   0  0  0  0  0  0  0  0  0  0  0  0
   10.2573    8.3215   20.9827 C   0  0  0  0  0  0  0  0  0  0  0  0
   11.1606    5.9378   21.2366 N   0  0  0  0  0  0  0  0  0  0  0  0
    9.8932   11.6736   19.0677 O   0  0  0  0  0  0  0  0  0  0  0  0
    6.4470    4.5850   22.2321 C   0  0  0  0  0  0  0  0  0  0  0  0
    8.4619    6.9895   22.2968 C   0  0  0  0  0  0  0  0  0  0  0  0
   12.2747    7.5102   20.0420 C   0  0  0  0  0  0  0  0  0  0  0  0
   14.2544    6.2142   19.4191 C   0  0  0  0  0  0  0  0  0  0  0  0
   13.0695    6.3705   20.0375 N   0  0  0  0  0  0  0  0  0  0  0  0
    9.1913    8.0876   21.8361 N   0  0  0  0  0  0  0  0  0  0  0  0
   10.4739    9.4813   20.2889 C   0  0  0  0  0  0  0  0  0  0  0  0
    7.5551    7.1270   23.1200 O   0  0  0  0  0  0  0  0  0  0  0  0
  1 11  4  0
  1 21  4  0
  2  4  1  0
  2  8  1  0
  2 11  1  0
  3 10  4  0
  3 14  4  0
  4  5  1  0
  4 18  2  0
  6 12  1  0
  6 17  4  0
  6 23  4  0
  7  9  1  0
  7 13  4  0
  7 19  4  0
  9 20  1  0
 10 19  4  0
 11 25  4  0
 13 14  4  0
 15 16  4  0
 15 17  4  0
 15 21  4  0
 16 24  1  0
 16 25  4  0
 20 24  1  0
 20 26  2  0
 21 23  4  0
 22 23  1  0
M  END
$$$$

 Created by Python create_sdf_string function

 26 28  0  0  0  0  0  0  0  0999 V2000
   12.4616    8.6700   19.4180 N   0  0  0  0  0  0  0  0  0  0  0  0
   11.8329   10.8148   18.6769 N   0  0  0  0  0  0  0  0  0  0  0  0
    6.1021    2.5564   21.0678 C   0  0  0  0  0  0  0  0  0  0  0  0
   10.9097   11.8051   18.4804 C   0  0  0  0  0  0  0  0  0  0  0  0
   11.2280   12.9135   17.5669 C   0  0  0  0  0  0  0  0  0  0  0  0
   12.3782    5.4231   20.7777 C   0  0  0  0  0  0  0  0  0  0  0  0
    7.7365    4.6508   21.6987 C   0  0  0  0  0  0  0  0  0  0  0  0
   13.0186   11.0102   18.0020 C   0  0  0  0  0  0  0  0  0  0  0  0
    8.6628    5.7088   21.8871 N   0  0  0  0  0  0  0  0  0  0  0  0
    5.6516    3.5258   21.9140 C   0  0  0  0  0  0  0  0  0  0  0  0
   11.5863    9.6815   19.4539 C   0  0  0  0  0  0  0  0  0  0  0  0
   12.9648    4.1543   20.9205 C   0  0  0  0  0  0  0  0  0  0  0  0
    8.2089    3.6265   20.8929 C   0  0  0  0  0  0  0  0  0  0  0  0
    7.3827    2.5724   20.5432 C   0  0  0  0  0  0  0  0  0  0  0  0
   11.1529    7.2750   20.8025 C   0  0  0  0  0  0  0  0  0  0  0  0
   10.2573    8.3215   20.9827 C   0  0  0  0  0  0  0  0  0  0  0  0
   11.1606    5.9378   21.2366 N   0  0  0  0  0  0  0  0  0  0  0  0
    9.8932   11.6736   19.0677 O   0  0  0  0  0  0  0  0  0  0  0  0
    6.4470    4.5850   22.2321 C   0  0  0  0  0  0  0  0  0  0  0  0
    8.4619    6.9895   22.2968 C   0  0  0  0  0  0  0  0  0  0  0  0
   12.2747    7.5102   20.0420 C   0  0  0  0  0  0  0  0  0  0  0  0
   14.2544    6.2142   19.4191 C   0  0  0  0  0  0  0  0  0  0  0  0
   13.0695    6.3705   20.0375 N   0  0  0  0  0  0  0  0  0  0  0  0
    9.1913    8.0876   21.8361 N   0  0  0  0  0  0  0  0  0  0  0  0
   10.4739    9.4813   20.2889 C   0  0  0  0  0  0  0  0  0  0  0  0
    7.5551    7.1270   23.1200 O   0  0  0  0  0  0  0  0  0  0  0  0
  1 11  4  0
  1 21  4  0
  2  4  1  0
  2  8  1  0
  2 11  1  0
  3 10  4  0
  3 14  4  0
  4  5  1  0
  4 18  2  0
  6 12  1  0
  6 17  4  0
  6 23  4  0
  7  9  1  0
  7 13  4  0
  7 19  4  0
  9 20  1  0
 10 19  4  0
 11 25  4  0
 13 14  4  0
 15 16  4  0
 15 17  4  0
 15 21  4  0
 16 24  1  0
 16 25  4  0
 20 24  1  0
 20 26  2  0
 21 23  4  0
 22 23  1  0
M  END
$$$$

 Created by Python create_sdf_string function

 26 28  0  0  0  0  0  0  0  0999 V2000
   12.4616    8.6700   19.4180 N   0  0  0  0  0  0  0  0  0  0  0  0
   11.8329   10.8148   18.6769 N   0  0  0  0  0  0  0  0  0  0  0  0
    6.1021    2.5564   21.0678 C   0  0  0  0  0  0  0  0  0  0  0  0
   10.9097   11.8051   18.4804 C   0  0  0  0  0  0  0  0  0  0  0  0
   11.2280   12.9135   17.5669 C   0  0  0  0  0  0  0  0  0  0  0  0
   12.3782    5.4231   20.7777 C   0  0  0  0  0  0  0  0  0  0  0  0
    7.7365    4.6508   21.6987 C   0  0  0  0  0  0  0  0  0  0  0  0
   13.0186   11.0102   18.0020 C   0  0  0  0  0  0  0  0  0  0  0  0
    8.6628    5.7088   21.8871 N   0  0  0  0  0  0  0  0  0  0  0  0
    5.6516    3.5258   21.9140 C   0  0  0  0  0  0  0  0  0  0  0  0
   11.5863    9.6815   19.4539 C   0  0  0  0  0  0  0  0  0  0  0  0
   12.9648    4.1543   20.9205 C   0  0  0  0  0  0  0  0  0  0  0  0
    8.2089    3.6265   20.8929 C   0  0  0  0  0  0  0  0  0  0  0  0
    7.3827    2.5724   20.5432 C   0  0  0  0  0  0  0  0  0  0  0  0
   11.1529    7.2750   20.8025 C   0  0  0  0  0  0  0  0  0  0  0  0
   10.2573    8.3215   20.9827 C   0  0  0  0  0  0  0  0  0  0  0  0
   11.1606    5.9378   21.2366 N   0  0  0  0  0  0  0  0  0  0  0  0
    9.8932   11.6736   19.0677 O   0  0  0  0  0  0  0  0  0  0  0  0
    6.4470    4.5850   22.2321 C   0  0  0  0  0  0  0  0  0  0  0  0
    8.4619    6.9895   22.2968 C   0  0  0  0  0  0  0  0  0  0  0  0
   12.2747    7.5102   20.0420 C   0  0  0  0  0  0  0  0  0  0  0  0
   14.2544    6.2142   19.4191 C   0  0  0  0  0  0  0  0  0  0  0  0
   13.0695    6.3705   20.0375 N   0  0  0  0  0  0  0  0  0  0  0  0
    9.1913    8.0876   21.8361 N   0  0  0  0  0  0  0  0  0  0  0  0
   10.4739    9.4813   20.2889 C   0  0  0  0  0  0  0  0  0  0  0  0
    7.5551    7.1270   23.1200 O   0  0  0  0  0  0  0  0  0  0  0  0
  1 11  4  0
  1 21  4  0
  2  4  1  0
  2  8  1  0
  2 11  1  0
  3 10  4  0
  3 14  4  0
  4  5  1  0
  4 18  2  0
  6 12  1  0
  6 17  4  0
  6 23  4  0
  7  9  1  0
  7 13  4  0
  7 19  4  0
  9 20  1  0
 10 19  4  0
 11 25  4  0
 13 14  4  0
 15 16  4  0
 15 17  4  0
 15 21  4  0
 16 24  1  0
 16 25  4  0
 20 24  1  0
 20 26  2  0
 21 23  4  0
 22 23  1  0
M  END
$$$$

 Created by Python create_sdf_string function

 26 28  0  0  0  0  0  0  0  0999 V2000
   12.4616    8.6700   19.4180 N   0  0  0  0  0  0  0  0  0  0  0  0
   11.8329   10.8148   18.6769 N   0  0  0  0  0  0  0  0  0  0  0  0
    6.1021    2.5564   21.0678 C   0  0  0  0  0  0  0  0  0  0  0  0
   10.9097   11.8051   18.4804 C   0  0  0  0  0  0  0  0  0  0  0  0
   11.2280   12.9135   17.5669 C   0  0  0  0  0  0  0  0  0  0  0  0
   12.3782    5.4231   20.7777 C   0  0  0  0  0  0  0  0  0  0  0  0
    7.7365    4.6508   21.6987 C   0  0  0  0  0  0  0  0  0  0  0  0
   13.0186   11.0102   18.0020 C   0  0  0  0  0  0  0  0  0  0  0  0
    8.6628    5.7088   21.8871 N   0  0  0  0  0  0  0  0  0  0  0  0
    5.6516    3.5258   21.9140 C   0  0  0  0  0  0  0  0  0  0  0  0
   11.5863    9.6815   19.4539 C   0  0  0  0  0  0  0  0  0  0  0  0
   12.9648    4.1543   20.9205 C   0  0  0  0  0  0  0  0  0  0  0  0
    8.2089    3.6265   20.8929 C   0  0  0  0  0  0  0  0  0  0  0  0
    7.3827    2.5724   20.5432 C   0  0  0  0  0  0  0  0  0  0  0  0
   11.1529    7.2750   20.8025 C   0  0  0  0  0  0  0  0  0  0  0  0
   10.2573    8.3215   20.9827 C   0  0  0  0  0  0  0  0  0  0  0  0
   11.1606    5.9378   21.2366 N   0  0  0  0  0  0  0  0  0  0  0  0
    9.8932   11.6736   19.0677 O   0  0  0  0  0  0  0  0  0  0  0  0
    6.4470    4.5850   22.2321 C   0  0  0  0  0  0  0  0  0  0  0  0
    8.4619    6.9895   22.2968 C   0  0  0  0  0  0  0  0  0  0  0  0
   12.2747    7.5102   20.0420 C   0  0  0  0  0  0  0  0  0  0  0  0
   14.2544    6.2142   19.4191 C   0  0  0  0  0  0  0  0  0  0  0  0
   13.0695    6.3705   20.0375 N   0  0  0  0  0  0  0  0  0  0  0  0
    9.1913    8.0876   21.8361 N   0  0  0  0  0  0  0  0  0  0  0  0
   10.4739    9.4813   20.2889 C   0  0  0  0  0  0  0  0  0  0  0  0
    7.5551    7.1270   23.1200 O   0  0  0  0  0  0  0  0  0  0  0  0
  1 11  4  0
  1 21  4  0
  2  4  1  0
  2  8  1  0
  2 11  1  0
  3 10  4  0
  3 14  4  0
  4  5  1  0
  4 18  2  0
  6 12  1  0
  6 17  4  0
  6 23  4  0
  7  9  1  0
  7 13  4  0
  7 19  4  0
  9 20  1  0
 10 19  4  0
 11 25  4  0
 13 14  4  0
 15 16  4  0
 15 17  4  0
 15 21  4  0
 16 24  1  0
 16 25  4  0
 20 24  1  0
 20 26  2  0
 21 23  4  0
 22 23  1  0
M  END
$$$$

 Created by Python create_sdf_string function

 26 28  0  0  0  0  0  0  0  0999 V2000
   12.4616    8.6700   19.4180 N   0  0  0  0  0  0  0  0  0  0  0  0
   11.8329   10.8148   18.6769 N   0  0  0  0  0  0  0  0  0  0  0  0
    6.1021    2.5564   21.0678 C   0  0  0  0  0  0  0  0  0  0  0  0
   10.9097   11.8051   18.4804 C   0  0  0  0  0  0  0  0  0  0  0  0
   11.2280   12.9135   17.5669 C   0  0  0  0  0  0  0  0  0  0  0  0
   12.3782    5.4231   20.7777 C   0  0  0  0  0  0  0  0  0  0  0  0
    7.7365    4.6508   21.6987 C   0  0  0  0  0  0  0  0  0  0  0  0
   13.0186   11.0102   18.0020 C   0  0  0  0  0  0  0  0  0  0  0  0
    8.6628    5.7088   21.8871 N   0  0  0  0  0  0  0  0  0  0  0  0
    5.6516    3.5258   21.9140 C   0  0  0  0  0  0  0  0  0  0  0  0
   11.5863    9.6815   19.4539 C   0  0  0  0  0  0  0  0  0  0  0  0
   12.9648    4.1543   20.9205 C   0  0  0  0  0  0  0  0  0  0  0  0
    8.2089    3.6265   20.8929 C   0  0  0  0  0  0  0  0  0  0  0  0
    7.3827    2.5724   20.5432 C   0  0  0  0  0  0  0  0  0  0  0  0
   11.1529    7.2750   20.8025 C   0  0  0  0  0  0  0  0  0  0  0  0
   10.2573    8.3215   20.9827 C   0  0  0  0  0  0  0  0  0  0  0  0
   11.1606    5.9378   21.2366 N   0  0  0  0  0  0  0  0  0  0  0  0
    9.8932   11.6736   19.0677 O   0  0  0  0  0  0  0  0  0  0  0  0
    6.4470    4.5850   22.2321 C   0  0  0  0  0  0  0  0  0  0  0  0
    8.4619    6.9895   22.2968 C   0  0  0  0  0  0  0  0  0  0  0  0
   12.2747    7.5102   20.0420 C   0  0  0  0  0  0  0  0  0  0  0  0
   14.2544    6.2142   19.4191 C   0  0  0  0  0  0  0  0  0  0  0  0
   13.0695    6.3705   20.0375 N   0  0  0  0  0  0  0  0  0  0  0  0
    9.1913    8.0876   21.8361 N   0  0  0  0  0  0  0  0  0  0  0  0
   10.4739    9.4813   20.2889 C   0  0  0  0  0  0  0  0  0  0  0  0
    7.5551    7.1270   23.1200 O   0  0  0  0  0  0  0  0  0  0  0  0
  1 11  4  0
  1 21  4  0
  2  4  1  0
  2  8  1  0
  2 11  1  0
  3 10  4  0
  3 14  4  0
  4  5  1  0
  4 18  2  0
  6 12  1  0
  6 17  4  0
  6 23  4  0
  7  9  1  0
  7 13  4  0
  7 19  4  0
  9 20  1  0
 10 19  4  0
 11 25  4  0
 13 14  4  0
 15 16  4  0
 15 17  4  0
 15 21  4  0
 16 24  1  0
 16 25  4  0
 20 24  1  0
 20 26  2  0
 21 23  4  0
 22 23  1  0
M  END
$$$$

 Created by Python create_sdf_string function

 26 28  0  0  0  0  0  0  0  0999 V2000
   12.4616    8.6700   19.4180 N   0  0  0  0  0  0  0  0  0  0  0  0
   11.8329   10.8148   18.6769 N   0  0  0  0  0  0  0  0  0  0  0  0
    6.1021    2.5564   21.0678 C   0  0  0  0  0  0  0  0  0  0  0  0
   10.9097   11.8051   18.4804 C   0  0  0  0  0  0  0  0  0  0  0  0
   11.2280   12.9135   17.5669 C   0  0  0  0  0  0  0  0  0  0  0  0
   12.3782    5.4231   20.7777 C   0  0  0  0  0  0  0  0  0  0  0  0
    7.7365    4.6508   21.6987 C   0  0  0  0  0  0  0  0  0  0  0  0
   13.0186   11.0102   18.0020 C   0  0  0  0  0  0  0  0  0  0  0  0
    8.6628    5.7088   21.8871 N   0  0  0  0  0  0  0  0  0  0  0  0
    5.6516    3.5258   21.9140 C   0  0  0  0  0  0  0  0  0  0  0  0
   11.5863    9.6815   19.4539 C   0  0  0  0  0  0  0  0  0  0  0  0
   12.9648    4.1543   20.9205 C   0  0  0  0  0  0  0  0  0  0  0  0
    8.2089    3.6265   20.8929 C   0  0  0  0  0  0  0  0  0  0  0  0
    7.3827    2.5724   20.5432 C   0  0  0  0  0  0  0  0  0  0  0  0
   11.1529    7.2750   20.8025 C   0  0  0  0  0  0  0  0  0  0  0  0
   10.2573    8.3215   20.9827 C   0  0  0  0  0  0  0  0  0  0  0  0
   11.1606    5.9378   21.2366 N   0  0  0  0  0  0  0  0  0  0  0  0
    9.8932   11.6736   19.0677 O   0  0  0  0  0  0  0  0  0  0  0  0
    6.4470    4.5850   22.2321 C   0  0  0  0  0  0  0  0  0  0  0  0
    8.4619    6.9895   22.2968 C   0  0  0  0  0  0  0  0  0  0  0  0
   12.2747    7.5102   20.0420 C   0  0  0  0  0  0  0  0  0  0  0  0
   14.2544    6.2142   19.4191 C   0  0  0  0  0  0  0  0  0  0  0  0
   13.0695    6.3705   20.0375 N   0  0  0  0  0  0  0  0  0  0  0  0
    9.1913    8.0876   21.8361 N   0  0  0  0  0  0  0  0  0  0  0  0
   10.4739    9.4813   20.2889 C   0  0  0  0  0  0  0  0  0  0  0  0
    7.5551    7.1270   23.1200 O   0  0  0  0  0  0  0  0  0  0  0  0
  1 11  4  0
  1 21  4  0
  2  4  1  0
  2  8  1  0
  2 11  1  0
  3 10  4  0
  3 14  4  0
  4  5  1  0
  4 18  2  0
  6 12  1  0
  6 17  4  0
  6 23  4  0
  7  9  1  0
  7 13  4  0
  7 19  4  0
  9 20  1  0
 10 19  4  0
 11 25  4  0
 13 14  4  0
 15 16  4  0
 15 17  4  0
 15 21  4  0
 16 24  1  0
 16 25  4  0
 20 24  1  0
 20 26  2  0
 21 23  4  0
 22 23  1  0
M  END
$$$$

 Created by Python create_sdf_string function

 26 28  0  0  0  0  0  0  0  0999 V2000
   12.4616    8.6700   19.4180 N   0  0  0  0  0  0  0  0  0  0  0  0
   11.8329   10.8148   18.6769 N   0  0  0  0  0  0  0  0  0  0  0  0
    6.1021    2.5564   21.0678 C   0  0  0  0  0  0  0  0  0  0  0  0
   10.9097   11.8051   18.4804 C   0  0  0  0  0  0  0  0  0  0  0  0
   11.2280   12.9135   17.5669 C   0  0  0  0  0  0  0  0  0  0  0  0
   12.3782    5.4231   20.7777 C   0  0  0  0  0  0  0  0  0  0  0  0
    7.7365    4.6508   21.6987 C   0  0  0  0  0  0  0  0  0  0  0  0
   13.0186   11.0102   18.0020 C   0  0  0  0  0  0  0  0  0  0  0  0
    8.6628    5.7088   21.8871 N   0  0  0  0  0  0  0  0  0  0  0  0
    5.6516    3.5258   21.9140 C   0  0  0  0  0  0  0  0  0  0  0  0
   11.5863    9.6815   19.4539 C   0  0  0  0  0  0  0  0  0  0  0  0
   12.9648    4.1543   20.9205 C   0  0  0  0  0  0  0  0  0  0  0  0
    8.2089    3.6265   20.8929 C   0  0  0  0  0  0  0  0  0  0  0  0
    7.3827    2.5724   20.5432 C   0  0  0  0  0  0  0  0  0  0  0  0
   11.1529    7.2750   20.8025 C   0  0  0  0  0  0  0  0  0  0  0  0
   10.2573    8.3215   20.9827 C   0  0  0  0  0  0  0  0  0  0  0  0
   11.1606    5.9378   21.2366 N   0  0  0  0  0  0  0  0  0  0  0  0
    9.8932   11.6736   19.0677 O   0  0  0  0  0  0  0  0  0  0  0  0
    6.4470    4.5850   22.2321 C   0  0  0  0  0  0  0  0  0  0  0  0
    8.4619    6.9895   22.2968 C   0  0  0  0  0  0  0  0  0  0  0  0
   12.2747    7.5102   20.0420 C   0  0  0  0  0  0  0  0  0  0  0  0
   14.2544    6.2142   19.4191 C   0  0  0  0  0  0  0  0  0  0  0  0
   13.0695    6.3705   20.0375 N   0  0  0  0  0  0  0  0  0  0  0  0
    9.1913    8.0876   21.8361 N   0  0  0  0  0  0  0  0  0  0  0  0
   10.4739    9.4813   20.2889 C   0  0  0  0  0  0  0  0  0  0  0  0
    7.5551    7.1270   23.1200 O   0  0  0  0  0  0  0  0  0  0  0  0
  1 11  4  0
  1 21  4  0
  2  4  1  0
  2  8  1  0
  2 11  1  0
  3 10  4  0
  3 14  4  0
  4  5  1  0
  4 18  2  0
  6 12  1  0
  6 17  4  0
  6 23  4  0
  7  9  1  0
  7 13  4  0
  7 19  4  0
  9 20  1  0
 10 19  4  0
 11 25  4  0
 13 14  4  0
 15 16  4  0
 15 17  4  0
 15 21  4  0
 16 24  1  0
 16 25  4  0
 20 24  1  0
 20 26  2  0
 21 23  4  0
 22 23  1  0
M  END
$$$$

 Created by Python create_sdf_string function

 26 28  0  0  0  0  0  0  0  0999 V2000
   12.4616    8.6700   19.4180 N   0  0  0  0  0  0  0  0  0  0  0  0
   11.8329   10.8148   18.6769 N   0  0  0  0  0  0  0  0  0  0  0  0
    6.1021    2.5564   21.0678 C   0  0  0  0  0  0  0  0  0  0  0  0
   10.9097   11.8051   18.4804 C   0  0  0  0  0  0  0  0  0  0  0  0
   11.2280   12.9135   17.5669 C   0  0  0  0  0  0  0  0  0  0  0  0
   12.3782    5.4231   20.7777 C   0  0  0  0  0  0  0  0  0  0  0  0
    7.7365    4.6508   21.6987 C   0  0  0  0  0  0  0  0  0  0  0  0
   13.0186   11.0102   18.0020 C   0  0  0  0  0  0  0  0  0  0  0  0
    8.6628    5.7088   21.8871 N   0  0  0  0  0  0  0  0  0  0  0  0
    5.6516    3.5258   21.9140 C   0  0  0  0  0  0  0  0  0  0  0  0
   11.5863    9.6815   19.4539 C   0  0  0  0  0  0  0  0  0  0  0  0
   12.9648    4.1543   20.9205 C   0  0  0  0  0  0  0  0  0  0  0  0
    8.2089    3.6265   20.8929 C   0  0  0  0  0  0  0  0  0  0  0  0
    7.3827    2.5724   20.5432 C   0  0  0  0  0  0  0  0  0  0  0  0
   11.1529    7.2750   20.8025 C   0  0  0  0  0  0  0  0  0  0  0  0
   10.2573    8.3215   20.9827 C   0  0  0  0  0  0  0  0  0  0  0  0
   11.1606    5.9378   21.2366 N   0  0  0  0  0  0  0  0  0  0  0  0
    9.8932   11.6736   19.0677 O   0  0  0  0  0  0  0  0  0  0  0  0
    6.4470    4.5850   22.2321 C   0  0  0  0  0  0  0  0  0  0  0  0
    8.4619    6.9895   22.2968 C   0  0  0  0  0  0  0  0  0  0  0  0
   12.2747    7.5102   20.0420 C   0  0  0  0  0  0  0  0  0  0  0  0
   14.2544    6.2142   19.4191 C   0  0  0  0  0  0  0  0  0  0  0  0
   13.0695    6.3705   20.0375 N   0  0  0  0  0  0  0  0  0  0  0  0
    9.1913    8.0876   21.8361 N   0  0  0  0  0  0  0  0  0  0  0  0
   10.4739    9.4813   20.2889 C   0  0  0  0  0  0  0  0  0  0  0  0
    7.5551    7.1270   23.1200 O   0  0  0  0  0  0  0  0  0  0  0  0
  1 11  4  0
  1 21  4  0
  2  4  1  0
  2  8  1  0
  2 11  1  0
  3 10  4  0
  3 14  4  0
  4  5  1  0
  4 18  2  0
  6 12  1  0
  6 17  4  0
  6 23  4  0
  7  9  1  0
  7 13  4  0
  7 19  4  0
  9 20  1  0
 10 19  4  0
 11 25  4  0
 13 14  4  0
 15 16  4  0
 15 17  4  0
 15 21  4  0
 16 24  1  0
 16 25  4  0
 20 24  1  0
 20 26  2  0
 21 23  4  0
 22 23  1  0
M  END
$$$$

 Created by Python create_sdf_string function

 26 28  0  0  0  0  0  0  0  0999 V2000
   12.4616    8.6700   19.4180 N   0  0  0  0  0  0  0  0  0  0  0  0
   11.8329   10.8148   18.6769 N   0  0  0  0  0  0  0  0  0  0  0  0
    6.1021    2.5564   21.0678 C   0  0  0  0  0  0  0  0  0  0  0  0
   10.9097   11.8051   18.4804 C   0  0  0  0  0  0  0  0  0  0  0  0
   11.2280   12.9135   17.5669 C   0  0  0  0  0  0  0  0  0  0  0  0
   12.3782    5.4231   20.7777 C   0  0  0  0  0  0  0  0  0  0  0  0
    7.7365    4.6508   21.6987 C   0  0  0  0  0  0  0  0  0  0  0  0
   13.0186   11.0102   18.0020 C   0  0  0  0  0  0  0  0  0  0  0  0
    8.6628    5.7088   21.8871 N   0  0  0  0  0  0  0  0  0  0  0  0
    5.6516    3.5258   21.9140 C   0  0  0  0  0  0  0  0  0  0  0  0
   11.5863    9.6815   19.4539 C   0  0  0  0  0  0  0  0  0  0  0  0
   12.9648    4.1543   20.9205 C   0  0  0  0  0  0  0  0  0  0  0  0
    8.2089    3.6265   20.8929 C   0  0  0  0  0  0  0  0  0  0  0  0
    7.3827    2.5724   20.5432 C   0  0  0  0  0  0  0  0  0  0  0  0
   11.1529    7.2750   20.8025 C   0  0  0  0  0  0  0  0  0  0  0  0
   10.2573    8.3215   20.9827 C   0  0  0  0  0  0  0  0  0  0  0  0
   11.1606    5.9378   21.2366 N   0  0  0  0  0  0  0  0  0  0  0  0
    9.8932   11.6736   19.0677 O   0  0  0  0  0  0  0  0  0  0  0  0
    6.4470    4.5850   22.2321 C   0  0  0  0  0  0  0  0  0  0  0  0
    8.4619    6.9895   22.2968 C   0  0  0  0  0  0  0  0  0  0  0  0
   12.2747    7.5102   20.0420 C   0  0  0  0  0  0  0  0  0  0  0  0
   14.2544    6.2142   19.4191 C   0  0  0  0  0  0  0  0  0  0  0  0
   13.0695    6.3705   20.0375 N   0  0  0  0  0  0  0  0  0  0  0  0
    9.1913    8.0876   21.8361 N   0  0  0  0  0  0  0  0  0  0  0  0
   10.4739    9.4813   20.2889 C   0  0  0  0  0  0  0  0  0  0  0  0
    7.5551    7.1270   23.1200 O   0  0  0  0  0  0  0  0  0  0  0  0
  1 11  4  0
  1 21  4  0
  2  4  1  0
  2  8  1  0
  2 11  1  0
  3 10  4  0
  3 14  4  0
  4  5  1  0
  4 18  2  0
  6 12  1  0
  6 17  4  0
  6 23  4  0
  7  9  1  0
  7 13  4  0
  7 19  4  0
  9 20  1  0
 10 19  4  0
 11 25  4  0
 13 14  4  0
 15 16  4  0
 15 17  4  0
 15 21  4  0
 16 24  1  0
 16 25  4  0
 20 24  1  0
 20 26  2  0
 21 23  4  0
 22 23  1  0
M  END
$$$$

 Created by Python create_sdf_string function

 26 28  0  0  0  0  0  0  0  0999 V2000
   12.4616    8.6700   19.4180 N   0  0  0  0  0  0  0  0  0  0  0  0
   11.8329   10.8148   18.6769 N   0  0  0  0  0  0  0  0  0  0  0  0
    6.1021    2.5564   21.0678 C   0  0  0  0  0  0  0  0  0  0  0  0
   10.9097   11.8051   18.4804 C   0  0  0  0  0  0  0  0  0  0  0  0
   11.2280   12.9135   17.5669 C   0  0  0  0  0  0  0  0  0  0  0  0
   12.3782    5.4231   20.7777 C   0  0  0  0  0  0  0  0  0  0  0  0
    7.7365    4.6508   21.6987 C   0  0  0  0  0  0  0  0  0  0  0  0
   13.0186   11.0102   18.0020 C   0  0  0  0  0  0  0  0  0  0  0  0
    8.6628    5.7088   21.8871 N   0  0  0  0  0  0  0  0  0  0  0  0
    5.6516    3.5258   21.9140 C   0  0  0  0  0  0  0  0  0  0  0  0
   11.5863    9.6815   19.4539 C   0  0  0  0  0  0  0  0  0  0  0  0
   12.9648    4.1543   20.9205 C   0  0  0  0  0  0  0  0  0  0  0  0
    8.2089    3.6265   20.8929 C   0  0  0  0  0  0  0  0  0  0  0  0
    7.3827    2.5724   20.5432 C   0  0  0  0  0  0  0  0  0  0  0  0
   11.1529    7.2750   20.8025 C   0  0  0  0  0  0  0  0  0  0  0  0
   10.2573    8.3215   20.9827 C   0  0  0  0  0  0  0  0  0  0  0  0
   11.1606    5.9378   21.2366 N   0  0  0  0  0  0  0  0  0  0  0  0
    9.8932   11.6736   19.0677 O   0  0  0  0  0  0  0  0  0  0  0  0
    6.4470    4.5850   22.2321 C   0  0  0  0  0  0  0  0  0  0  0  0
    8.4619    6.9895   22.2968 C   0  0  0  0  0  0  0  0  0  0  0  0
   12.2747    7.5102   20.0420 C   0  0  0  0  0  0  0  0  0  0  0  0
   14.2544    6.2142   19.4191 C   0  0  0  0  0  0  0  0  0  0  0  0
   13.0695    6.3705   20.0375 N   0  0  0  0  0  0  0  0  0  0  0  0
    9.1913    8.0876   21.8361 N   0  0  0  0  0  0  0  0  0  0  0  0
   10.4739    9.4813   20.2889 C   0  0  0  0  0  0  0  0  0  0  0  0
    7.5551    7.1270   23.1200 O   0  0  0  0  0  0  0  0  0  0  0  0
  1 11  4  0
  1 21  4  0
  2  4  1  0
  2  8  1  0
  2 11  1  0
  3 10  4  0
  3 14  4  0
  4  5  1  0
  4 18  2  0
  6 12  1  0
  6 17  4  0
  6 23  4  0
  7  9  1  0
  7 13  4  0
  7 19  4  0
  9 20  1  0
 10 19  4  0
 11 25  4  0
 13 14  4  0
 15 16  4  0
 15 17  4  0
 15 21  4  0
 16 24  1  0
 16 25  4  0
 20 24  1  0
 20 26  2  0
 21 23  4  0
 22 23  1  0
M  END
$$$$

 Created by Python create_sdf_string function

 26 28  0  0  0  0  0  0  0  0999 V2000
   12.4616    8.6700   19.4180 N   0  0  0  0  0  0  0  0  0  0  0  0
   11.8329   10.8148   18.6769 N   0  0  0  0  0  0  0  0  0  0  0  0
    6.1021    2.5564   21.0678 C   0  0  0  0  0  0  0  0  0  0  0  0
   10.9097   11.8051   18.4804 C   0  0  0  0  0  0  0  0  0  0  0  0
   11.2280   12.9135   17.5669 C   0  0  0  0  0  0  0  0  0  0  0  0
   12.3782    5.4231   20.7777 C   0  0  0  0  0  0  0  0  0  0  0  0
    7.7365    4.6508   21.6987 C   0  0  0  0  0  0  0  0  0  0  0  0
   13.0186   11.0102   18.0020 C   0  0  0  0  0  0  0  0  0  0  0  0
    8.6628    5.7088   21.8871 N   0  0  0  0  0  0  0  0  0  0  0  0
    5.6516    3.5258   21.9140 C   0  0  0  0  0  0  0  0  0  0  0  0
   11.5863    9.6815   19.4539 C   0  0  0  0  0  0  0  0  0  0  0  0
   12.9648    4.1543   20.9205 C   0  0  0  0  0  0  0  0  0  0  0  0
    8.2089    3.6265   20.8929 C   0  0  0  0  0  0  0  0  0  0  0  0
    7.3827    2.5724   20.5432 C   0  0  0  0  0  0  0  0  0  0  0  0
   11.1529    7.2750   20.8025 C   0  0  0  0  0  0  0  0  0  0  0  0
   10.2573    8.3215   20.9827 C   0  0  0  0  0  0  0  0  0  0  0  0
   11.1606    5.9378   21.2366 N   0  0  0  0  0  0  0  0  0  0  0  0
    9.8932   11.6736   19.0677 O   0  0  0  0  0  0  0  0  0  0  0  0
    6.4470    4.5850   22.2321 C   0  0  0  0  0  0  0  0  0  0  0  0
    8.4619    6.9895   22.2968 C   0  0  0  0  0  0  0  0  0  0  0  0
   12.2747    7.5102   20.0420 C   0  0  0  0  0  0  0  0  0  0  0  0
   14.2544    6.2142   19.4191 C   0  0  0  0  0  0  0  0  0  0  0  0
   13.0695    6.3705   20.0375 N   0  0  0  0  0  0  0  0  0  0  0  0
    9.1913    8.0876   21.8361 N   0  0  0  0  0  0  0  0  0  0  0  0
   10.4739    9.4813   20.2889 C   0  0  0  0  0  0  0  0  0  0  0  0
    7.5551    7.1270   23.1200 O   0  0  0  0  0  0  0  0  0  0  0  0
  1 11  4  0
  1 21  4  0
  2  4  1  0
  2  8  1  0
  2 11  1  0
  3 10  4  0
  3 14  4  0
  4  5  1  0
  4 18  2  0
  6 12  1  0
  6 17  4  0
  6 23  4  0
  7  9  1  0
  7 13  4  0
  7 19  4  0
  9 20  1  0
 10 19  4  0
 11 25  4  0
 13 14  4  0
 15 16  4  0
 15 17  4  0
 15 21  4  0
 16 24  1  0
 16 25  4  0
 20 24  1  0
 20 26  2  0
 21 23  4  0
 22 23  1  0
M  END
$$$$

 Created by Python create_sdf_string function

 26 28  0  0  0  0  0  0  0  0999 V2000
   12.4616    8.6700   19.4180 N   0  0  0  0  0  0  0  0  0  0  0  0
   11.8329   10.8148   18.6769 N   0  0  0  0  0  0  0  0  0  0  0  0
    6.1021    2.5564   21.0678 C   0  0  0  0  0  0  0  0  0  0  0  0
   10.9097   11.8051   18.4804 C   0  0  0  0  0  0  0  0  0  0  0  0
   11.2280   12.9135   17.5669 C   0  0  0  0  0  0  0  0  0  0  0  0
   12.3782    5.4231   20.7777 C   0  0  0  0  0  0  0  0  0  0  0  0
    7.7365    4.6508   21.6987 C   0  0  0  0  0  0  0  0  0  0  0  0
   13.0186   11.0102   18.0020 C   0  0  0  0  0  0  0  0  0  0  0  0
    8.6628    5.7088   21.8871 N   0  0  0  0  0  0  0  0  0  0  0  0
    5.6516    3.5258   21.9140 C   0  0  0  0  0  0  0  0  0  0  0  0
   11.5863    9.6815   19.4539 C   0  0  0  0  0  0  0  0  0  0  0  0
   12.9648    4.1543   20.9205 C   0  0  0  0  0  0  0  0  0  0  0  0
    8.2089    3.6265   20.8929 C   0  0  0  0  0  0  0  0  0  0  0  0
    7.3827    2.5724   20.5432 C   0  0  0  0  0  0  0  0  0  0  0  0
   11.1529    7.2750   20.8025 C   0  0  0  0  0  0  0  0  0  0  0  0
   10.2573    8.3215   20.9827 C   0  0  0  0  0  0  0  0  0  0  0  0
   11.1606    5.9378   21.2366 N   0  0  0  0  0  0  0  0  0  0  0  0
    9.8932   11.6736   19.0677 O   0  0  0  0  0  0  0  0  0  0  0  0
    6.4470    4.5850   22.2321 C   0  0  0  0  0  0  0  0  0  0  0  0
    8.4619    6.9895   22.2968 C   0  0  0  0  0  0  0  0  0  0  0  0
   12.2747    7.5102   20.0420 C   0  0  0  0  0  0  0  0  0  0  0  0
   14.2544    6.2142   19.4191 C   0  0  0  0  0  0  0  0  0  0  0  0
   13.0695    6.3705   20.0375 N   0  0  0  0  0  0  0  0  0  0  0  0
    9.1913    8.0876   21.8361 N   0  0  0  0  0  0  0  0  0  0  0  0
   10.4739    9.4813   20.2889 C   0  0  0  0  0  0  0  0  0  0  0  0
    7.5551    7.1270   23.1200 O   0  0  0  0  0  0  0  0  0  0  0  0
  1 11  4  0
  1 21  4  0
  2  4  1  0
  2  8  1  0
  2 11  1  0
  3 10  4  0
  3 14  4  0
  4  5  1  0
  4 18  2  0
  6 12  1  0
  6 17  4  0
  6 23  4  0
  7  9  1  0
  7 13  4  0
  7 19  4  0
  9 20  1  0
 10 19  4  0
 11 25  4  0
 13 14  4  0
 15 16  4  0
 15 17  4  0
 15 21  4  0
 16 24  1  0
 16 25  4  0
 20 24  1  0
 20 26  2  0
 21 23  4  0
 22 23  1  0
M  END
$$$$

 Created by Python create_sdf_string function

 26 28  0  0  0  0  0  0  0  0999 V2000
   12.4616    8.6700   19.4180 N   0  0  0  0  0  0  0  0  0  0  0  0
   11.8329   10.8148   18.6769 N   0  0  0  0  0  0  0  0  0  0  0  0
    6.1021    2.5564   21.0678 C   0  0  0  0  0  0  0  0  0  0  0  0
   10.9097   11.8051   18.4804 C   0  0  0  0  0  0  0  0  0  0  0  0
   11.2280   12.9135   17.5669 C   0  0  0  0  0  0  0  0  0  0  0  0
   12.3782    5.4231   20.7777 C   0  0  0  0  0  0  0  0  0  0  0  0
    7.7365    4.6508   21.6987 C   0  0  0  0  0  0  0  0  0  0  0  0
   13.0186   11.0102   18.0020 C   0  0  0  0  0  0  0  0  0  0  0  0
    8.6628    5.7088   21.8871 N   0  0  0  0  0  0  0  0  0  0  0  0
    5.6516    3.5258   21.9140 C   0  0  0  0  0  0  0  0  0  0  0  0
   11.5863    9.6815   19.4539 C   0  0  0  0  0  0  0  0  0  0  0  0
   12.9648    4.1543   20.9205 C   0  0  0  0  0  0  0  0  0  0  0  0
    8.2089    3.6265   20.8929 C   0  0  0  0  0  0  0  0  0  0  0  0
    7.3827    2.5724   20.5432 C   0  0  0  0  0  0  0  0  0  0  0  0
   11.1529    7.2750   20.8025 C   0  0  0  0  0  0  0  0  0  0  0  0
   10.2573    8.3215   20.9827 C   0  0  0  0  0  0  0  0  0  0  0  0
   11.1606    5.9378   21.2366 N   0  0  0  0  0  0  0  0  0  0  0  0
    9.8932   11.6736   19.0677 O   0  0  0  0  0  0  0  0  0  0  0  0
    6.4470    4.5850   22.2321 C   0  0  0  0  0  0  0  0  0  0  0  0
    8.4619    6.9895   22.2968 C   0  0  0  0  0  0  0  0  0  0  0  0
   12.2747    7.5102   20.0420 C   0  0  0  0  0  0  0  0  0  0  0  0
   14.2544    6.2142   19.4191 C   0  0  0  0  0  0  0  0  0  0  0  0
   13.0695    6.3705   20.0375 N   0  0  0  0  0  0  0  0  0  0  0  0
    9.1913    8.0876   21.8361 N   0  0  0  0  0  0  0  0  0  0  0  0
   10.4739    9.4813   20.2889 C   0  0  0  0  0  0  0  0  0  0  0  0
    7.5551    7.1270   23.1200 O   0  0  0  0  0  0  0  0  0  0  0  0
  1 11  4  0
  1 21  4  0
  2  4  1  0
  2  8  1  0
  2 11  1  0
  3 10  4  0
  3 14  4  0
  4  5  1  0
  4 18  2  0
  6 12  1  0
  6 17  4  0
  6 23  4  0
  7  9  1  0
  7 13  4  0
  7 19  4  0
  9 20  1  0
 10 19  4  0
 11 25  4  0
 13 14  4  0
 15 16  4  0
 15 17  4  0
 15 21  4  0
 16 24  1  0
 16 25  4  0
 20 24  1  0
 20 26  2  0
 21 23  4  0
 22 23  1  0
M  END
$$$$

 Created by Python create_sdf_string function

 26 28  0  0  0  0  0  0  0  0999 V2000
   12.4616    8.6700   19.4180 N   0  0  0  0  0  0  0  0  0  0  0  0
   11.8329   10.8148   18.6769 N   0  0  0  0  0  0  0  0  0  0  0  0
    6.1021    2.5564   21.0678 C   0  0  0  0  0  0  0  0  0  0  0  0
   10.9097   11.8051   18.4804 C   0  0  0  0  0  0  0  0  0  0  0  0
   11.2280   12.9135   17.5669 C   0  0  0  0  0  0  0  0  0  0  0  0
   12.3782    5.4231   20.7777 C   0  0  0  0  0  0  0  0  0  0  0  0
    7.7365    4.6508   21.6987 C   0  0  0  0  0  0  0  0  0  0  0  0
   13.0186   11.0102   18.0020 C   0  0  0  0  0  0  0  0  0  0  0  0
    8.6628    5.7088   21.8871 N   0  0  0  0  0  0  0  0  0  0  0  0
    5.6516    3.5258   21.9140 C   0  0  0  0  0  0  0  0  0  0  0  0
   11.5863    9.6815   19.4539 C   0  0  0  0  0  0  0  0  0  0  0  0
   12.9648    4.1543   20.9205 C   0  0  0  0  0  0  0  0  0  0  0  0
    8.2089    3.6265   20.8929 C   0  0  0  0  0  0  0  0  0  0  0  0
    7.3827    2.5724   20.5432 C   0  0  0  0  0  0  0  0  0  0  0  0
   11.1529    7.2750   20.8025 C   0  0  0  0  0  0  0  0  0  0  0  0
   10.2573    8.3215   20.9827 C   0  0  0  0  0  0  0  0  0  0  0  0
   11.1606    5.9378   21.2366 N   0  0  0  0  0  0  0  0  0  0  0  0
    9.8932   11.6736   19.0677 O   0  0  0  0  0  0  0  0  0  0  0  0
    6.4470    4.5850   22.2321 C   0  0  0  0  0  0  0  0  0  0  0  0
    8.4619    6.9895   22.2968 C   0  0  0  0  0  0  0  0  0  0  0  0
   12.2747    7.5102   20.0420 C   0  0  0  0  0  0  0  0  0  0  0  0
   14.2544    6.2142   19.4191 C   0  0  0  0  0  0  0  0  0  0  0  0
   13.0695    6.3705   20.0375 N   0  0  0  0  0  0  0  0  0  0  0  0
    9.1913    8.0876   21.8361 N   0  0  0  0  0  0  0  0  0  0  0  0
   10.4739    9.4813   20.2889 C   0  0  0  0  0  0  0  0  0  0  0  0
    7.5551    7.1270   23.1200 O   0  0  0  0  0  0  0  0  0  0  0  0
  1 11  4  0
  1 21  4  0
  2  4  1  0
  2  8  1  0
  2 11  1  0
  3 10  4  0
  3 14  4  0
  4  5  1  0
  4 18  2  0
  6 12  1  0
  6 17  4  0
  6 23  4  0
  7  9  1  0
  7 13  4  0
  7 19  4  0
  9 20  1  0
 10 19  4  0
 11 25  4  0
 13 14  4  0
 15 16  4  0
 15 17  4  0
 15 21  4  0
 16 24  1  0
 16 25  4  0
 20 24  1  0
 20 26  2  0
 21 23  4  0
 22 23  1  0
M  END
$$$$

 Created by Python create_sdf_string function

 26 28  0  0  0  0  0  0  0  0999 V2000
   12.4616    8.6700   19.4180 N   0  0  0  0  0  0  0  0  0  0  0  0
   11.8329   10.8148   18.6769 N   0  0  0  0  0  0  0  0  0  0  0  0
    6.1021    2.5564   21.0678 C   0  0  0  0  0  0  0  0  0  0  0  0
   10.9097   11.8051   18.4804 C   0  0  0  0  0  0  0  0  0  0  0  0
   11.2280   12.9135   17.5669 C   0  0  0  0  0  0  0  0  0  0  0  0
   12.3782    5.4231   20.7777 C   0  0  0  0  0  0  0  0  0  0  0  0
    7.7365    4.6508   21.6987 C   0  0  0  0  0  0  0  0  0  0  0  0
   13.0186   11.0102   18.0020 C   0  0  0  0  0  0  0  0  0  0  0  0
    8.6628    5.7088   21.8871 N   0  0  0  0  0  0  0  0  0  0  0  0
    5.6516    3.5258   21.9140 C   0  0  0  0  0  0  0  0  0  0  0  0
   11.5863    9.6815   19.4539 C   0  0  0  0  0  0  0  0  0  0  0  0
   12.9648    4.1543   20.9205 C   0  0  0  0  0  0  0  0  0  0  0  0
    8.2089    3.6265   20.8929 C   0  0  0  0  0  0  0  0  0  0  0  0
    7.3827    2.5724   20.5432 C   0  0  0  0  0  0  0  0  0  0  0  0
   11.1529    7.2750   20.8025 C   0  0  0  0  0  0  0  0  0  0  0  0
   10.2573    8.3215   20.9827 C   0  0  0  0  0  0  0  0  0  0  0  0
   11.1606    5.9378   21.2366 N   0  0  0  0  0  0  0  0  0  0  0  0
    9.8932   11.6736   19.0677 O   0  0  0  0  0  0  0  0  0  0  0  0
    6.4470    4.5850   22.2321 C   0  0  0  0  0  0  0  0  0  0  0  0
    8.4619    6.9895   22.2968 C   0  0  0  0  0  0  0  0  0  0  0  0
   12.2747    7.5102   20.0420 C   0  0  0  0  0  0  0  0  0  0  0  0
   14.2544    6.2142   19.4191 C   0  0  0  0  0  0  0  0  0  0  0  0
   13.0695    6.3705   20.0375 N   0  0  0  0  0  0  0  0  0  0  0  0
    9.1913    8.0876   21.8361 N   0  0  0  0  0  0  0  0  0  0  0  0
   10.4739    9.4813   20.2889 C   0  0  0  0  0  0  0  0  0  0  0  0
    7.5551    7.1270   23.1200 O   0  0  0  0  0  0  0  0  0  0  0  0
  1 11  4  0
  1 21  4  0
  2  4  1  0
  2  8  1  0
  2 11  1  0
  3 10  4  0
  3 14  4  0
  4  5  1  0
  4 18  2  0
  6 12  1  0
  6 17  4  0
  6 23  4  0
  7  9  1  0
  7 13  4  0
  7 19  4  0
  9 20  1  0
 10 19  4  0
 11 25  4  0
 13 14  4  0
 15 16  4  0
 15 17  4  0
 15 21  4  0
 16 24  1  0
 16 25  4  0
 20 24  1  0
 20 26  2  0
 21 23  4  0
 22 23  1  0
M  END
$$$$

 Created by Python create_sdf_string function

 26 28  0  0  0  0  0  0  0  0999 V2000
   12.4616    8.6700   19.4180 N   0  0  0  0  0  0  0  0  0  0  0  0
   11.8329   10.8148   18.6769 N   0  0  0  0  0  0  0  0  0  0  0  0
    6.1021    2.5564   21.0678 C   0  0  0  0  0  0  0  0  0  0  0  0
   10.9097   11.8051   18.4804 C   0  0  0  0  0  0  0  0  0  0  0  0
   11.2280   12.9135   17.5669 C   0  0  0  0  0  0  0  0  0  0  0  0
   12.3782    5.4231   20.7777 C   0  0  0  0  0  0  0  0  0  0  0  0
    7.7365    4.6508   21.6987 C   0  0  0  0  0  0  0  0  0  0  0  0
   13.0186   11.0102   18.0020 C   0  0  0  0  0  0  0  0  0  0  0  0
    8.6628    5.7088   21.8871 N   0  0  0  0  0  0  0  0  0  0  0  0
    5.6516    3.5258   21.9140 C   0  0  0  0  0  0  0  0  0  0  0  0
   11.5863    9.6815   19.4539 C   0  0  0  0  0  0  0  0  0  0  0  0
   12.9648    4.1543   20.9205 C   0  0  0  0  0  0  0  0  0  0  0  0
    8.2089    3.6265   20.8929 C   0  0  0  0  0  0  0  0  0  0  0  0
    7.3827    2.5724   20.5432 C   0  0  0  0  0  0  0  0  0  0  0  0
   11.1529    7.2750   20.8025 C   0  0  0  0  0  0  0  0  0  0  0  0
   10.2573    8.3215   20.9827 C   0  0  0  0  0  0  0  0  0  0  0  0
   11.1606    5.9378   21.2366 N   0  0  0  0  0  0  0  0  0  0  0  0
    9.8932   11.6736   19.0677 O   0  0  0  0  0  0  0  0  0  0  0  0
    6.4470    4.5850   22.2321 C   0  0  0  0  0  0  0  0  0  0  0  0
    8.4619    6.9895   22.2968 C   0  0  0  0  0  0  0  0  0  0  0  0
   12.2747    7.5102   20.0420 C   0  0  0  0  0  0  0  0  0  0  0  0
   14.2544    6.2142   19.4191 C   0  0  0  0  0  0  0  0  0  0  0  0
   13.0695    6.3705   20.0375 N   0  0  0  0  0  0  0  0  0  0  0  0
    9.1913    8.0876   21.8361 N   0  0  0  0  0  0  0  0  0  0  0  0
   10.4739    9.4813   20.2889 C   0  0  0  0  0  0  0  0  0  0  0  0
    7.5551    7.1270   23.1200 O   0  0  0  0  0  0  0  0  0  0  0  0
  1 11  4  0
  1 21  4  0
  2  4  1  0
  2  8  1  0
  2 11  1  0
  3 10  4  0
  3 14  4  0
  4  5  1  0
  4 18  2  0
  6 12  1  0
  6 17  4  0
  6 23  4  0
  7  9  1  0
  7 13  4  0
  7 19  4  0
  9 20  1  0
 10 19  4  0
 11 25  4  0
 13 14  4  0
 15 16  4  0
 15 17  4  0
 15 21  4  0
 16 24  1  0
 16 25  4  0
 20 24  1  0
 20 26  2  0
 21 23  4  0
 22 23  1  0
M  END
$$$$

 Created by Python create_sdf_string function

 26 28  0  0  0  0  0  0  0  0999 V2000
   12.4616    8.6700   19.4180 N   0  0  0  0  0  0  0  0  0  0  0  0
   11.8329   10.8148   18.6769 N   0  0  0  0  0  0  0  0  0  0  0  0
    6.1021    2.5564   21.0678 C   0  0  0  0  0  0  0  0  0  0  0  0
   10.9097   11.8051   18.4804 C   0  0  0  0  0  0  0  0  0  0  0  0
   11.2280   12.9135   17.5669 C   0  0  0  0  0  0  0  0  0  0  0  0
   12.3782    5.4231   20.7777 C   0  0  0  0  0  0  0  0  0  0  0  0
    7.7365    4.6508   21.6987 C   0  0  0  0  0  0  0  0  0  0  0  0
   13.0186   11.0102   18.0020 C   0  0  0  0  0  0  0  0  0  0  0  0
    8.6628    5.7088   21.8871 N   0  0  0  0  0  0  0  0  0  0  0  0
    5.6516    3.5258   21.9140 C   0  0  0  0  0  0  0  0  0  0  0  0
   11.5863    9.6815   19.4539 C   0  0  0  0  0  0  0  0  0  0  0  0
   12.9648    4.1543   20.9205 C   0  0  0  0  0  0  0  0  0  0  0  0
    8.2089    3.6265   20.8929 C   0  0  0  0  0  0  0  0  0  0  0  0
    7.3827    2.5724   20.5432 C   0  0  0  0  0  0  0  0  0  0  0  0
   11.1529    7.2750   20.8025 C   0  0  0  0  0  0  0  0  0  0  0  0
   10.2573    8.3215   20.9827 C   0  0  0  0  0  0  0  0  0  0  0  0
   11.1606    5.9378   21.2366 N   0  0  0  0  0  0  0  0  0  0  0  0
    9.8932   11.6736   19.0677 O   0  0  0  0  0  0  0  0  0  0  0  0
    6.4470    4.5850   22.2321 C   0  0  0  0  0  0  0  0  0  0  0  0
    8.4619    6.9895   22.2968 C   0  0  0  0  0  0  0  0  0  0  0  0
   12.2747    7.5102   20.0420 C   0  0  0  0  0  0  0  0  0  0  0  0
   14.2544    6.2142   19.4191 C   0  0  0  0  0  0  0  0  0  0  0  0
   13.0695    6.3705   20.0375 N   0  0  0  0  0  0  0  0  0  0  0  0
    9.1913    8.0876   21.8361 N   0  0  0  0  0  0  0  0  0  0  0  0
   10.4739    9.4813   20.2889 C   0  0  0  0  0  0  0  0  0  0  0  0
    7.5551    7.1270   23.1200 O   0  0  0  0  0  0  0  0  0  0  0  0
  1 11  4  0
  1 21  4  0
  2  4  1  0
  2  8  1  0
  2 11  1  0
  3 10  4  0
  3 14  4  0
  4  5  1  0
  4 18  2  0
  6 12  1  0
  6 17  4  0
  6 23  4  0
  7  9  1  0
  7 13  4  0
  7 19  4  0
  9 20  1  0
 10 19  4  0
 11 25  4  0
 13 14  4  0
 15 16  4  0
 15 17  4  0
 15 21  4  0
 16 24  1  0
 16 25  4  0
 20 24  1  0
 20 26  2  0
 21 23  4  0
 22 23  1  0
M  END
$$$$

 Created by Python create_sdf_string function

 26 28  0  0  0  0  0  0  0  0999 V2000
   12.4616    8.6700   19.4180 N   0  0  0  0  0  0  0  0  0  0  0  0
   11.8329   10.8148   18.6769 N   0  0  0  0  0  0  0  0  0  0  0  0
    6.1021    2.5564   21.0678 C   0  0  0  0  0  0  0  0  0  0  0  0
   10.9097   11.8051   18.4804 C   0  0  0  0  0  0  0  0  0  0  0  0
   11.2280   12.9135   17.5669 C   0  0  0  0  0  0  0  0  0  0  0  0
   12.3782    5.4231   20.7777 C   0  0  0  0  0  0  0  0  0  0  0  0
    7.7365    4.6508   21.6987 C   0  0  0  0  0  0  0  0  0  0  0  0
   13.0186   11.0102   18.0020 C   0  0  0  0  0  0  0  0  0  0  0  0
    8.6628    5.7088   21.8871 N   0  0  0  0  0  0  0  0  0  0  0  0
    5.6516    3.5258   21.9140 C   0  0  0  0  0  0  0  0  0  0  0  0
   11.5863    9.6815   19.4539 C   0  0  0  0  0  0  0  0  0  0  0  0
   12.9648    4.1543   20.9205 C   0  0  0  0  0  0  0  0  0  0  0  0
    8.2089    3.6265   20.8929 C   0  0  0  0  0  0  0  0  0  0  0  0
    7.3827    2.5724   20.5432 C   0  0  0  0  0  0  0  0  0  0  0  0
   11.1529    7.2750   20.8025 C   0  0  0  0  0  0  0  0  0  0  0  0
   10.2573    8.3215   20.9827 C   0  0  0  0  0  0  0  0  0  0  0  0
   11.1606    5.9378   21.2366 N   0  0  0  0  0  0  0  0  0  0  0  0
    9.8932   11.6736   19.0677 O   0  0  0  0  0  0  0  0  0  0  0  0
    6.4470    4.5850   22.2321 C   0  0  0  0  0  0  0  0  0  0  0  0
    8.4619    6.9895   22.2968 C   0  0  0  0  0  0  0  0  0  0  0  0
   12.2747    7.5102   20.0420 C   0  0  0  0  0  0  0  0  0  0  0  0
   14.2544    6.2142   19.4191 C   0  0  0  0  0  0  0  0  0  0  0  0
   13.0695    6.3705   20.0375 N   0  0  0  0  0  0  0  0  0  0  0  0
    9.1913    8.0876   21.8361 N   0  0  0  0  0  0  0  0  0  0  0  0
   10.4739    9.4813   20.2889 C   0  0  0  0  0  0  0  0  0  0  0  0
    7.5551    7.1270   23.1200 O   0  0  0  0  0  0  0  0  0  0  0  0
  1 11  4  0
  1 21  4  0
  2  4  1  0
  2  8  1  0
  2 11  1  0
  3 10  4  0
  3 14  4  0
  4  5  1  0
  4 18  2  0
  6 12  1  0
  6 17  4  0
  6 23  4  0
  7  9  1  0
  7 13  4  0
  7 19  4  0
  9 20  1  0
 10 19  4  0
 11 25  4  0
 13 14  4  0
 15 16  4  0
 15 17  4  0
 15 21  4  0
 16 24  1  0
 16 25  4  0
 20 24  1  0
 20 26  2  0
 21 23  4  0
 22 23  1  0
M  END
$$$$

 Created by Python create_sdf_string function

 26 28  0  0  0  0  0  0  0  0999 V2000
   12.4616    8.6700   19.4180 N   0  0  0  0  0  0  0  0  0  0  0  0
   11.8329   10.8148   18.6769 N   0  0  0  0  0  0  0  0  0  0  0  0
    6.1021    2.5564   21.0678 C   0  0  0  0  0  0  0  0  0  0  0  0
   10.9097   11.8051   18.4804 C   0  0  0  0  0  0  0  0  0  0  0  0
   11.2280   12.9135   17.5669 C   0  0  0  0  0  0  0  0  0  0  0  0
   12.3782    5.4231   20.7777 C   0  0  0  0  0  0  0  0  0  0  0  0
    7.7365    4.6508   21.6987 C   0  0  0  0  0  0  0  0  0  0  0  0
   13.0186   11.0102   18.0020 C   0  0  0  0  0  0  0  0  0  0  0  0
    8.6628    5.7088   21.8871 N   0  0  0  0  0  0  0  0  0  0  0  0
    5.6516    3.5258   21.9140 C   0  0  0  0  0  0  0  0  0  0  0  0
   11.5863    9.6815   19.4539 C   0  0  0  0  0  0  0  0  0  0  0  0
   12.9648    4.1543   20.9205 C   0  0  0  0  0  0  0  0  0  0  0  0
    8.2089    3.6265   20.8929 C   0  0  0  0  0  0  0  0  0  0  0  0
    7.3827    2.5724   20.5432 C   0  0  0  0  0  0  0  0  0  0  0  0
   11.1529    7.2750   20.8025 C   0  0  0  0  0  0  0  0  0  0  0  0
   10.2573    8.3215   20.9827 C   0  0  0  0  0  0  0  0  0  0  0  0
   11.1606    5.9378   21.2366 N   0  0  0  0  0  0  0  0  0  0  0  0
    9.8932   11.6736   19.0677 O   0  0  0  0  0  0  0  0  0  0  0  0
    6.4470    4.5850   22.2321 C   0  0  0  0  0  0  0  0  0  0  0  0
    8.4619    6.9895   22.2968 C   0  0  0  0  0  0  0  0  0  0  0  0
   12.2747    7.5102   20.0420 C   0  0  0  0  0  0  0  0  0  0  0  0
   14.2544    6.2142   19.4191 C   0  0  0  0  0  0  0  0  0  0  0  0
   13.0695    6.3705   20.0375 N   0  0  0  0  0  0  0  0  0  0  0  0
    9.1913    8.0876   21.8361 N   0  0  0  0  0  0  0  0  0  0  0  0
   10.4739    9.4813   20.2889 C   0  0  0  0  0  0  0  0  0  0  0  0
    7.5551    7.1270   23.1200 O   0  0  0  0  0  0  0  0  0  0  0  0
  1 11  4  0
  1 21  4  0
  2  4  1  0
  2  8  1  0
  2 11  1  0
  3 10  4  0
  3 14  4  0
  4  5  1  0
  4 18  2  0
  6 12  1  0
  6 17  4  0
  6 23  4  0
  7  9  1  0
  7 13  4  0
  7 19  4  0
  9 20  1  0
 10 19  4  0
 11 25  4  0
 13 14  4  0
 15 16  4  0
 15 17  4  0
 15 21  4  0
 16 24  1  0
 16 25  4  0
 20 24  1  0
 20 26  2  0
 21 23  4  0
 22 23  1  0
M  END
$$$$

 Created by Python create_sdf_string function

 26 28  0  0  0  0  0  0  0  0999 V2000
   12.4616    8.6700   19.4180 N   0  0  0  0  0  0  0  0  0  0  0  0
   11.8329   10.8148   18.6769 N   0  0  0  0  0  0  0  0  0  0  0  0
    6.1021    2.5564   21.0678 C   0  0  0  0  0  0  0  0  0  0  0  0
   10.9097   11.8051   18.4804 C   0  0  0  0  0  0  0  0  0  0  0  0
   11.2280   12.9135   17.5669 C   0  0  0  0  0  0  0  0  0  0  0  0
   12.3782    5.4231   20.7777 C   0  0  0  0  0  0  0  0  0  0  0  0
    7.7365    4.6508   21.6987 C   0  0  0  0  0  0  0  0  0  0  0  0
   13.0186   11.0102   18.0020 C   0  0  0  0  0  0  0  0  0  0  0  0
    8.6628    5.7088   21.8871 N   0  0  0  0  0  0  0  0  0  0  0  0
    5.6516    3.5258   21.9140 C   0  0  0  0  0  0  0  0  0  0  0  0
   11.5863    9.6815   19.4539 C   0  0  0  0  0  0  0  0  0  0  0  0
   12.9648    4.1543   20.9205 C   0  0  0  0  0  0  0  0  0  0  0  0
    8.2089    3.6265   20.8929 C   0  0  0  0  0  0  0  0  0  0  0  0
    7.3827    2.5724   20.5432 C   0  0  0  0  0  0  0  0  0  0  0  0
   11.1529    7.2750   20.8025 C   0  0  0  0  0  0  0  0  0  0  0  0
   10.2573    8.3215   20.9827 C   0  0  0  0  0  0  0  0  0  0  0  0
   11.1606    5.9378   21.2366 N   0  0  0  0  0  0  0  0  0  0  0  0
    9.8932   11.6736   19.0677 O   0  0  0  0  0  0  0  0  0  0  0  0
    6.4470    4.5850   22.2321 C   0  0  0  0  0  0  0  0  0  0  0  0
    8.4619    6.9895   22.2968 C   0  0  0  0  0  0  0  0  0  0  0  0
   12.2747    7.5102   20.0420 C   0  0  0  0  0  0  0  0  0  0  0  0
   14.2544    6.2142   19.4191 C   0  0  0  0  0  0  0  0  0  0  0  0
   13.0695    6.3705   20.0375 N   0  0  0  0  0  0  0  0  0  0  0  0
    9.1913    8.0876   21.8361 N   0  0  0  0  0  0  0  0  0  0  0  0
   10.4739    9.4813   20.2889 C   0  0  0  0  0  0  0  0  0  0  0  0
    7.5551    7.1270   23.1200 O   0  0  0  0  0  0  0  0  0  0  0  0
  1 11  4  0
  1 21  4  0
  2  4  1  0
  2  8  1  0
  2 11  1  0
  3 10  4  0
  3 14  4  0
  4  5  1  0
  4 18  2  0
  6 12  1  0
  6 17  4  0
  6 23  4  0
  7  9  1  0
  7 13  4  0
  7 19  4  0
  9 20  1  0
 10 19  4  0
 11 25  4  0
 13 14  4  0
 15 16  4  0
 15 17  4  0
 15 21  4  0
 16 24  1  0
 16 25  4  0
 20 24  1  0
 20 26  2  0
 21 23  4  0
 22 23  1  0
M  END
$$$$

 Created by Python create_sdf_string function

 26 28  0  0  0  0  0  0  0  0999 V2000
   12.4616    8.6700   19.4180 N   0  0  0  0  0  0  0  0  0  0  0  0
   11.8329   10.8148   18.6769 N   0  0  0  0  0  0  0  0  0  0  0  0
    6.1021    2.5564   21.0678 C   0  0  0  0  0  0  0  0  0  0  0  0
   10.9097   11.8051   18.4804 C   0  0  0  0  0  0  0  0  0  0  0  0
   11.2280   12.9135   17.5669 C   0  0  0  0  0  0  0  0  0  0  0  0
   12.3782    5.4231   20.7777 C   0  0  0  0  0  0  0  0  0  0  0  0
    7.7365    4.6508   21.6987 C   0  0  0  0  0  0  0  0  0  0  0  0
   13.0186   11.0102   18.0020 C   0  0  0  0  0  0  0  0  0  0  0  0
    8.6628    5.7088   21.8871 N   0  0  0  0  0  0  0  0  0  0  0  0
    5.6516    3.5258   21.9140 C   0  0  0  0  0  0  0  0  0  0  0  0
   11.5863    9.6815   19.4539 C   0  0  0  0  0  0  0  0  0  0  0  0
   12.9648    4.1543   20.9205 C   0  0  0  0  0  0  0  0  0  0  0  0
    8.2089    3.6265   20.8929 C   0  0  0  0  0  0  0  0  0  0  0  0
    7.3827    2.5724   20.5432 C   0  0  0  0  0  0  0  0  0  0  0  0
   11.1529    7.2750   20.8025 C   0  0  0  0  0  0  0  0  0  0  0  0
   10.2573    8.3215   20.9827 C   0  0  0  0  0  0  0  0  0  0  0  0
   11.1606    5.9378   21.2366 N   0  0  0  0  0  0  0  0  0  0  0  0
    9.8932   11.6736   19.0677 O   0  0  0  0  0  0  0  0  0  0  0  0
    6.4470    4.5850   22.2321 C   0  0  0  0  0  0  0  0  0  0  0  0
    8.4619    6.9895   22.2968 C   0  0  0  0  0  0  0  0  0  0  0  0
   12.2747    7.5102   20.0420 C   0  0  0  0  0  0  0  0  0  0  0  0
   14.2544    6.2142   19.4191 C   0  0  0  0  0  0  0  0  0  0  0  0
   13.0695    6.3705   20.0375 N   0  0  0  0  0  0  0  0  0  0  0  0
    9.1913    8.0876   21.8361 N   0  0  0  0  0  0  0  0  0  0  0  0
   10.4739    9.4813   20.2889 C   0  0  0  0  0  0  0  0  0  0  0  0
    7.5551    7.1270   23.1200 O   0  0  0  0  0  0  0  0  0  0  0  0
  1 11  4  0
  1 21  4  0
  2  4  1  0
  2  8  1  0
  2 11  1  0
  3 10  4  0
  3 14  4  0
  4  5  1  0
  4 18  2  0
  6 12  1  0
  6 17  4  0
  6 23  4  0
  7  9  1  0
  7 13  4  0
  7 19  4  0
  9 20  1  0
 10 19  4  0
 11 25  4  0
 13 14  4  0
 15 16  4  0
 15 17  4  0
 15 21  4  0
 16 24  1  0
 16 25  4  0
 20 24  1  0
 20 26  2  0
 21 23  4  0
 22 23  1  0
M  END
$$$$

 Created by Python create_sdf_string function

 26 28  0  0  0  0  0  0  0  0999 V2000
   12.4616    8.6700   19.4180 N   0  0  0  0  0  0  0  0  0  0  0  0
   11.8329   10.8148   18.6769 N   0  0  0  0  0  0  0  0  0  0  0  0
    6.1021    2.5564   21.0678 C   0  0  0  0  0  0  0  0  0  0  0  0
   10.9097   11.8051   18.4804 C   0  0  0  0  0  0  0  0  0  0  0  0
   11.2280   12.9135   17.5669 C   0  0  0  0  0  0  0  0  0  0  0  0
   12.3782    5.4231   20.7777 C   0  0  0  0  0  0  0  0  0  0  0  0
    7.7365    4.6508   21.6987 C   0  0  0  0  0  0  0  0  0  0  0  0
   13.0186   11.0102   18.0020 C   0  0  0  0  0  0  0  0  0  0  0  0
    8.6628    5.7088   21.8871 N   0  0  0  0  0  0  0  0  0  0  0  0
    5.6516    3.5258   21.9140 C   0  0  0  0  0  0  0  0  0  0  0  0
   11.5863    9.6815   19.4539 C   0  0  0  0  0  0  0  0  0  0  0  0
   12.9648    4.1543   20.9205 C   0  0  0  0  0  0  0  0  0  0  0  0
    8.2089    3.6265   20.8929 C   0  0  0  0  0  0  0  0  0  0  0  0
    7.3827    2.5724   20.5432 C   0  0  0  0  0  0  0  0  0  0  0  0
   11.1529    7.2750   20.8025 C   0  0  0  0  0  0  0  0  0  0  0  0
   10.2573    8.3215   20.9827 C   0  0  0  0  0  0  0  0  0  0  0  0
   11.1606    5.9378   21.2366 N   0  0  0  0  0  0  0  0  0  0  0  0
    9.8932   11.6736   19.0677 O   0  0  0  0  0  0  0  0  0  0  0  0
    6.4470    4.5850   22.2321 C   0  0  0  0  0  0  0  0  0  0  0  0
    8.4619    6.9895   22.2968 C   0  0  0  0  0  0  0  0  0  0  0  0
   12.2747    7.5102   20.0420 C   0  0  0  0  0  0  0  0  0  0  0  0
   14.2544    6.2142   19.4191 C   0  0  0  0  0  0  0  0  0  0  0  0
   13.0695    6.3705   20.0375 N   0  0  0  0  0  0  0  0  0  0  0  0
    9.1913    8.0876   21.8361 N   0  0  0  0  0  0  0  0  0  0  0  0
   10.4739    9.4813   20.2889 C   0  0  0  0  0  0  0  0  0  0  0  0
    7.5551    7.1270   23.1200 O   0  0  0  0  0  0  0  0  0  0  0  0
  1 11  4  0
  1 21  4  0
  2  4  1  0
  2  8  1  0
  2 11  1  0
  3 10  4  0
  3 14  4  0
  4  5  1  0
  4 18  2  0
  6 12  1  0
  6 17  4  0
  6 23  4  0
  7  9  1  0
  7 13  4  0
  7 19  4  0
  9 20  1  0
 10 19  4  0
 11 25  4  0
 13 14  4  0
 15 16  4  0
 15 17  4  0
 15 21  4  0
 16 24  1  0
 16 25  4  0
 20 24  1  0
 20 26  2  0
 21 23  4  0
 22 23  1  0
M  END
$$$$

 Created by Python create_sdf_string function

 26 28  0  0  0  0  0  0  0  0999 V2000
   12.4616    8.6700   19.4180 N   0  0  0  0  0  0  0  0  0  0  0  0
   11.8329   10.8148   18.6769 N   0  0  0  0  0  0  0  0  0  0  0  0
    6.1021    2.5564   21.0678 C   0  0  0  0  0  0  0  0  0  0  0  0
   10.9097   11.8051   18.4804 C   0  0  0  0  0  0  0  0  0  0  0  0
   11.2280   12.9135   17.5669 C   0  0  0  0  0  0  0  0  0  0  0  0
   12.3782    5.4231   20.7777 C   0  0  0  0  0  0  0  0  0  0  0  0
    7.7365    4.6508   21.6987 C   0  0  0  0  0  0  0  0  0  0  0  0
   13.0186   11.0102   18.0020 C   0  0  0  0  0  0  0  0  0  0  0  0
    8.6628    5.7088   21.8871 N   0  0  0  0  0  0  0  0  0  0  0  0
    5.6516    3.5258   21.9140 C   0  0  0  0  0  0  0  0  0  0  0  0
   11.5863    9.6815   19.4539 C   0  0  0  0  0  0  0  0  0  0  0  0
   12.9648    4.1543   20.9205 C   0  0  0  0  0  0  0  0  0  0  0  0
    8.2089    3.6265   20.8929 C   0  0  0  0  0  0  0  0  0  0  0  0
    7.3827    2.5724   20.5432 C   0  0  0  0  0  0  0  0  0  0  0  0
   11.1529    7.2750   20.8025 C   0  0  0  0  0  0  0  0  0  0  0  0
   10.2573    8.3215   20.9827 C   0  0  0  0  0  0  0  0  0  0  0  0
   11.1606    5.9378   21.2366 N   0  0  0  0  0  0  0  0  0  0  0  0
    9.8932   11.6736   19.0677 O   0  0  0  0  0  0  0  0  0  0  0  0
    6.4470    4.5850   22.2321 C   0  0  0  0  0  0  0  0  0  0  0  0
    8.4619    6.9895   22.2968 C   0  0  0  0  0  0  0  0  0  0  0  0
   12.2747    7.5102   20.0420 C   0  0  0  0  0  0  0  0  0  0  0  0
   14.2544    6.2142   19.4191 C   0  0  0  0  0  0  0  0  0  0  0  0
   13.0695    6.3705   20.0375 N   0  0  0  0  0  0  0  0  0  0  0  0
    9.1913    8.0876   21.8361 N   0  0  0  0  0  0  0  0  0  0  0  0
   10.4739    9.4813   20.2889 C   0  0  0  0  0  0  0  0  0  0  0  0
    7.5551    7.1270   23.1200 O   0  0  0  0  0  0  0  0  0  0  0  0
  1 11  4  0
  1 21  4  0
  2  4  1  0
  2  8  1  0
  2 11  1  0
  3 10  4  0
  3 14  4  0
  4  5  1  0
  4 18  2  0
  6 12  1  0
  6 17  4  0
  6 23  4  0
  7  9  1  0
  7 13  4  0
  7 19  4  0
  9 20  1  0
 10 19  4  0
 11 25  4  0
 13 14  4  0
 15 16  4  0
 15 17  4  0
 15 21  4  0
 16 24  1  0
 16 25  4  0
 20 24  1  0
 20 26  2  0
 21 23  4  0
 22 23  1  0
M  END
$$$$

 Created by Python create_sdf_string function

 26 28  0  0  0  0  0  0  0  0999 V2000
   12.4616    8.6700   19.4180 N   0  0  0  0  0  0  0  0  0  0  0  0
   11.8329   10.8148   18.6769 N   0  0  0  0  0  0  0  0  0  0  0  0
    6.1021    2.5564   21.0678 C   0  0  0  0  0  0  0  0  0  0  0  0
   10.9097   11.8051   18.4804 C   0  0  0  0  0  0  0  0  0  0  0  0
   11.2280   12.9135   17.5669 C   0  0  0  0  0  0  0  0  0  0  0  0
   12.3782    5.4231   20.7777 C   0  0  0  0  0  0  0  0  0  0  0  0
    7.7365    4.6508   21.6987 C   0  0  0  0  0  0  0  0  0  0  0  0
   13.0186   11.0102   18.0020 C   0  0  0  0  0  0  0  0  0  0  0  0
    8.6628    5.7088   21.8871 N   0  0  0  0  0  0  0  0  0  0  0  0
    5.6516    3.5258   21.9140 C   0  0  0  0  0  0  0  0  0  0  0  0
   11.5863    9.6815   19.4539 C   0  0  0  0  0  0  0  0  0  0  0  0
   12.9648    4.1543   20.9205 C   0  0  0  0  0  0  0  0  0  0  0  0
    8.2089    3.6265   20.8929 C   0  0  0  0  0  0  0  0  0  0  0  0
    7.3827    2.5724   20.5432 C   0  0  0  0  0  0  0  0  0  0  0  0
   11.1529    7.2750   20.8025 C   0  0  0  0  0  0  0  0  0  0  0  0
   10.2573    8.3215   20.9827 C   0  0  0  0  0  0  0  0  0  0  0  0
   11.1606    5.9378   21.2366 N   0  0  0  0  0  0  0  0  0  0  0  0
    9.8932   11.6736   19.0677 O   0  0  0  0  0  0  0  0  0  0  0  0
    6.4470    4.5850   22.2321 C   0  0  0  0  0  0  0  0  0  0  0  0
    8.4619    6.9895   22.2968 C   0  0  0  0  0  0  0  0  0  0  0  0
   12.2747    7.5102   20.0420 C   0  0  0  0  0  0  0  0  0  0  0  0
   14.2544    6.2142   19.4191 C   0  0  0  0  0  0  0  0  0  0  0  0
   13.0695    6.3705   20.0375 N   0  0  0  0  0  0  0  0  0  0  0  0
    9.1913    8.0876   21.8361 N   0  0  0  0  0  0  0  0  0  0  0  0
   10.4739    9.4813   20.2889 C   0  0  0  0  0  0  0  0  0  0  0  0
    7.5551    7.1270   23.1200 O   0  0  0  0  0  0  0  0  0  0  0  0
  1 11  4  0
  1 21  4  0
  2  4  1  0
  2  8  1  0
  2 11  1  0
  3 10  4  0
  3 14  4  0
  4  5  1  0
  4 18  2  0
  6 12  1  0
  6 17  4  0
  6 23  4  0
  7  9  1  0
  7 13  4  0
  7 19  4  0
  9 20  1  0
 10 19  4  0
 11 25  4  0
 13 14  4  0
 15 16  4  0
 15 17  4  0
 15 21  4  0
 16 24  1  0
 16 25  4  0
 20 24  1  0
 20 26  2  0
 21 23  4  0
 22 23  1  0
M  END
$$$$

 Created by Python create_sdf_string function

 26 28  0  0  0  0  0  0  0  0999 V2000
   12.4616    8.6700   19.4180 N   0  0  0  0  0  0  0  0  0  0  0  0
   11.8329   10.8148   18.6769 N   0  0  0  0  0  0  0  0  0  0  0  0
    6.1021    2.5564   21.0678 C   0  0  0  0  0  0  0  0  0  0  0  0
   10.9097   11.8051   18.4804 C   0  0  0  0  0  0  0  0  0  0  0  0
   11.2280   12.9135   17.5669 C   0  0  0  0  0  0  0  0  0  0  0  0
   12.3782    5.4231   20.7777 C   0  0  0  0  0  0  0  0  0  0  0  0
    7.7365    4.6508   21.6987 C   0  0  0  0  0  0  0  0  0  0  0  0
   13.0186   11.0102   18.0020 C   0  0  0  0  0  0  0  0  0  0  0  0
    8.6628    5.7088   21.8871 N   0  0  0  0  0  0  0  0  0  0  0  0
    5.6516    3.5258   21.9140 C   0  0  0  0  0  0  0  0  0  0  0  0
   11.5863    9.6815   19.4539 C   0  0  0  0  0  0  0  0  0  0  0  0
   12.9648    4.1543   20.9205 C   0  0  0  0  0  0  0  0  0  0  0  0
    8.2089    3.6265   20.8929 C   0  0  0  0  0  0  0  0  0  0  0  0
    7.3827    2.5724   20.5432 C   0  0  0  0  0  0  0  0  0  0  0  0
   11.1529    7.2750   20.8025 C   0  0  0  0  0  0  0  0  0  0  0  0
   10.2573    8.3215   20.9827 C   0  0  0  0  0  0  0  0  0  0  0  0
   11.1606    5.9378   21.2366 N   0  0  0  0  0  0  0  0  0  0  0  0
    9.8932   11.6736   19.0677 O   0  0  0  0  0  0  0  0  0  0  0  0
    6.4470    4.5850   22.2321 C   0  0  0  0  0  0  0  0  0  0  0  0
    8.4619    6.9895   22.2968 C   0  0  0  0  0  0  0  0  0  0  0  0
   12.2747    7.5102   20.0420 C   0  0  0  0  0  0  0  0  0  0  0  0
   14.2544    6.2142   19.4191 C   0  0  0  0  0  0  0  0  0  0  0  0
   13.0695    6.3705   20.0375 N   0  0  0  0  0  0  0  0  0  0  0  0
    9.1913    8.0876   21.8361 N   0  0  0  0  0  0  0  0  0  0  0  0
   10.4739    9.4813   20.2889 C   0  0  0  0  0  0  0  0  0  0  0  0
    7.5551    7.1270   23.1200 O   0  0  0  0  0  0  0  0  0  0  0  0
  1 11  4  0
  1 21  4  0
  2  4  1  0
  2  8  1  0
  2 11  1  0
  3 10  4  0
  3 14  4  0
  4  5  1  0
  4 18  2  0
  6 12  1  0
  6 17  4  0
  6 23  4  0
  7  9  1  0
  7 13  4  0
  7 19  4  0
  9 20  1  0
 10 19  4  0
 11 25  4  0
 13 14  4  0
 15 16  4  0
 15 17  4  0
 15 21  4  0
 16 24  1  0
 16 25  4  0
 20 24  1  0
 20 26  2  0
 21 23  4  0
 22 23  1  0
M  END
$$$$

 Created by Python create_sdf_string function

 26 28  0  0  0  0  0  0  0  0999 V2000
   12.4616    8.6700   19.4180 N   0  0  0  0  0  0  0  0  0  0  0  0
   11.8329   10.8148   18.6769 N   0  0  0  0  0  0  0  0  0  0  0  0
    6.1021    2.5564   21.0678 C   0  0  0  0  0  0  0  0  0  0  0  0
   10.9097   11.8051   18.4804 C   0  0  0  0  0  0  0  0  0  0  0  0
   11.2280   12.9135   17.5669 C   0  0  0  0  0  0  0  0  0  0  0  0
   12.3782    5.4231   20.7777 C   0  0  0  0  0  0  0  0  0  0  0  0
    7.7365    4.6508   21.6987 C   0  0  0  0  0  0  0  0  0  0  0  0
   13.0186   11.0102   18.0020 C   0  0  0  0  0  0  0  0  0  0  0  0
    8.6628    5.7088   21.8871 N   0  0  0  0  0  0  0  0  0  0  0  0
    5.6516    3.5258   21.9140 C   0  0  0  0  0  0  0  0  0  0  0  0
   11.5863    9.6815   19.4539 C   0  0  0  0  0  0  0  0  0  0  0  0
   12.9648    4.1543   20.9205 C   0  0  0  0  0  0  0  0  0  0  0  0
    8.2089    3.6265   20.8929 C   0  0  0  0  0  0  0  0  0  0  0  0
    7.3827    2.5724   20.5432 C   0  0  0  0  0  0  0  0  0  0  0  0
   11.1529    7.2750   20.8025 C   0  0  0  0  0  0  0  0  0  0  0  0
   10.2573    8.3215   20.9827 C   0  0  0  0  0  0  0  0  0  0  0  0
   11.1606    5.9378   21.2366 N   0  0  0  0  0  0  0  0  0  0  0  0
    9.8932   11.6736   19.0677 O   0  0  0  0  0  0  0  0  0  0  0  0
    6.4470    4.5850   22.2321 C   0  0  0  0  0  0  0  0  0  0  0  0
    8.4619    6.9895   22.2968 C   0  0  0  0  0  0  0  0  0  0  0  0
   12.2747    7.5102   20.0420 C   0  0  0  0  0  0  0  0  0  0  0  0
   14.2544    6.2142   19.4191 C   0  0  0  0  0  0  0  0  0  0  0  0
   13.0695    6.3705   20.0375 N   0  0  0  0  0  0  0  0  0  0  0  0
    9.1913    8.0876   21.8361 N   0  0  0  0  0  0  0  0  0  0  0  0
   10.4739    9.4813   20.2889 C   0  0  0  0  0  0  0  0  0  0  0  0
    7.5551    7.1270   23.1200 O   0  0  0  0  0  0  0  0  0  0  0  0
  1 11  4  0
  1 21  4  0
  2  4  1  0
  2  8  1  0
  2 11  1  0
  3 10  4  0
  3 14  4  0
  4  5  1  0
  4 18  2  0
  6 12  1  0
  6 17  4  0
  6 23  4  0
  7  9  1  0
  7 13  4  0
  7 19  4  0
  9 20  1  0
 10 19  4  0
 11 25  4  0
 13 14  4  0
 15 16  4  0
 15 17  4  0
 15 21  4  0
 16 24  1  0
 16 25  4  0
 20 24  1  0
 20 26  2  0
 21 23  4  0
 22 23  1  0
M  END
$$$$

 Created by Python create_sdf_string function

 26 28  0  0  0  0  0  0  0  0999 V2000
   12.4616    8.6700   19.4180 N   0  0  0  0  0  0  0  0  0  0  0  0
   11.8329   10.8148   18.6769 N   0  0  0  0  0  0  0  0  0  0  0  0
    6.1021    2.5564   21.0678 C   0  0  0  0  0  0  0  0  0  0  0  0
   10.9097   11.8051   18.4804 C   0  0  0  0  0  0  0  0  0  0  0  0
   11.2280   12.9135   17.5669 C   0  0  0  0  0  0  0  0  0  0  0  0
   12.3782    5.4231   20.7777 C   0  0  0  0  0  0  0  0  0  0  0  0
    7.7365    4.6508   21.6987 C   0  0  0  0  0  0  0  0  0  0  0  0
   13.0186   11.0102   18.0020 C   0  0  0  0  0  0  0  0  0  0  0  0
    8.6628    5.7088   21.8871 N   0  0  0  0  0  0  0  0  0  0  0  0
    5.6516    3.5258   21.9140 C   0  0  0  0  0  0  0  0  0  0  0  0
   11.5863    9.6815   19.4539 C   0  0  0  0  0  0  0  0  0  0  0  0
   12.9648    4.1543   20.9205 C   0  0  0  0  0  0  0  0  0  0  0  0
    8.2089    3.6265   20.8929 C   0  0  0  0  0  0  0  0  0  0  0  0
    7.3827    2.5724   20.5432 C   0  0  0  0  0  0  0  0  0  0  0  0
   11.1529    7.2750   20.8025 C   0  0  0  0  0  0  0  0  0  0  0  0
   10.2573    8.3215   20.9827 C   0  0  0  0  0  0  0  0  0  0  0  0
   11.1606    5.9378   21.2366 N   0  0  0  0  0  0  0  0  0  0  0  0
    9.8932   11.6736   19.0677 O   0  0  0  0  0  0  0  0  0  0  0  0
    6.4470    4.5850   22.2321 C   0  0  0  0  0  0  0  0  0  0  0  0
    8.4619    6.9895   22.2968 C   0  0  0  0  0  0  0  0  0  0  0  0
   12.2747    7.5102   20.0420 C   0  0  0  0  0  0  0  0  0  0  0  0
   14.2544    6.2142   19.4191 C   0  0  0  0  0  0  0  0  0  0  0  0
   13.0695    6.3705   20.0375 N   0  0  0  0  0  0  0  0  0  0  0  0
    9.1913    8.0876   21.8361 N   0  0  0  0  0  0  0  0  0  0  0  0
   10.4739    9.4813   20.2889 C   0  0  0  0  0  0  0  0  0  0  0  0
    7.5551    7.1270   23.1200 O   0  0  0  0  0  0  0  0  0  0  0  0
  1 11  4  0
  1 21  4  0
  2  4  1  0
  2  8  1  0
  2 11  1  0
  3 10  4  0
  3 14  4  0
  4  5  1  0
  4 18  2  0
  6 12  1  0
  6 17  4  0
  6 23  4  0
  7  9  1  0
  7 13  4  0
  7 19  4  0
  9 20  1  0
 10 19  4  0
 11 25  4  0
 13 14  4  0
 15 16  4  0
 15 17  4  0
 15 21  4  0
 16 24  1  0
 16 25  4  0
 20 24  1  0
 20 26  2  0
 21 23  4  0
 22 23  1  0
M  END
$$$$

 Created by Python create_sdf_string function

 26 28  0  0  0  0  0  0  0  0999 V2000
   12.4616    8.6700   19.4180 N   0  0  0  0  0  0  0  0  0  0  0  0
   11.8329   10.8148   18.6769 N   0  0  0  0  0  0  0  0  0  0  0  0
    6.1021    2.5564   21.0678 C   0  0  0  0  0  0  0  0  0  0  0  0
   10.9097   11.8051   18.4804 C   0  0  0  0  0  0  0  0  0  0  0  0
   11.2280   12.9135   17.5669 C   0  0  0  0  0  0  0  0  0  0  0  0
   12.3782    5.4231   20.7777 C   0  0  0  0  0  0  0  0  0  0  0  0
    7.7365    4.6508   21.6987 C   0  0  0  0  0  0  0  0  0  0  0  0
   13.0186   11.0102   18.0020 C   0  0  0  0  0  0  0  0  0  0  0  0
    8.6628    5.7088   21.8871 N   0  0  0  0  0  0  0  0  0  0  0  0
    5.6516    3.5258   21.9140 C   0  0  0  0  0  0  0  0  0  0  0  0
   11.5863    9.6815   19.4539 C   0  0  0  0  0  0  0  0  0  0  0  0
   12.9648    4.1543   20.9205 C   0  0  0  0  0  0  0  0  0  0  0  0
    8.2089    3.6265   20.8929 C   0  0  0  0  0  0  0  0  0  0  0  0
    7.3827    2.5724   20.5432 C   0  0  0  0  0  0  0  0  0  0  0  0
   11.1529    7.2750   20.8025 C   0  0  0  0  0  0  0  0  0  0  0  0
   10.2573    8.3215   20.9827 C   0  0  0  0  0  0  0  0  0  0  0  0
   11.1606    5.9378   21.2366 N   0  0  0  0  0  0  0  0  0  0  0  0
    9.8932   11.6736   19.0677 O   0  0  0  0  0  0  0  0  0  0  0  0
    6.4470    4.5850   22.2321 C   0  0  0  0  0  0  0  0  0  0  0  0
    8.4619    6.9895   22.2968 C   0  0  0  0  0  0  0  0  0  0  0  0
   12.2747    7.5102   20.0420 C   0  0  0  0  0  0  0  0  0  0  0  0
   14.2544    6.2142   19.4191 C   0  0  0  0  0  0  0  0  0  0  0  0
   13.0695    6.3705   20.0375 N   0  0  0  0  0  0  0  0  0  0  0  0
    9.1913    8.0876   21.8361 N   0  0  0  0  0  0  0  0  0  0  0  0
   10.4739    9.4813   20.2889 C   0  0  0  0  0  0  0  0  0  0  0  0
    7.5551    7.1270   23.1200 O   0  0  0  0  0  0  0  0  0  0  0  0
  1 11  4  0
  1 21  4  0
  2  4  1  0
  2  8  1  0
  2 11  1  0
  3 10  4  0
  3 14  4  0
  4  5  1  0
  4 18  2  0
  6 12  1  0
  6 17  4  0
  6 23  4  0
  7  9  1  0
  7 13  4  0
  7 19  4  0
  9 20  1  0
 10 19  4  0
 11 25  4  0
 13 14  4  0
 15 16  4  0
 15 17  4  0
 15 21  4  0
 16 24  1  0
 16 25  4  0
 20 24  1  0
 20 26  2  0
 21 23  4  0
 22 23  1  0
M  END
$$$$

 Created by Python create_sdf_string function

 26 28  0  0  0  0  0  0  0  0999 V2000
   12.4616    8.6700   19.4180 N   0  0  0  0  0  0  0  0  0  0  0  0
   11.8329   10.8148   18.6769 N   0  0  0  0  0  0  0  0  0  0  0  0
    6.1021    2.5564   21.0678 C   0  0  0  0  0  0  0  0  0  0  0  0
   10.9097   11.8051   18.4804 C   0  0  0  0  0  0  0  0  0  0  0  0
   11.2280   12.9135   17.5669 C   0  0  0  0  0  0  0  0  0  0  0  0
   12.3782    5.4231   20.7777 C   0  0  0  0  0  0  0  0  0  0  0  0
    7.7365    4.6508   21.6987 C   0  0  0  0  0  0  0  0  0  0  0  0
   13.0186   11.0102   18.0020 C   0  0  0  0  0  0  0  0  0  0  0  0
    8.6628    5.7088   21.8871 N   0  0  0  0  0  0  0  0  0  0  0  0
    5.6516    3.5258   21.9140 C   0  0  0  0  0  0  0  0  0  0  0  0
   11.5863    9.6815   19.4539 C   0  0  0  0  0  0  0  0  0  0  0  0
   12.9648    4.1543   20.9205 C   0  0  0  0  0  0  0  0  0  0  0  0
    8.2089    3.6265   20.8929 C   0  0  0  0  0  0  0  0  0  0  0  0
    7.3827    2.5724   20.5432 C   0  0  0  0  0  0  0  0  0  0  0  0
   11.1529    7.2750   20.8025 C   0  0  0  0  0  0  0  0  0  0  0  0
   10.2573    8.3215   20.9827 C   0  0  0  0  0  0  0  0  0  0  0  0
   11.1606    5.9378   21.2366 N   0  0  0  0  0  0  0  0  0  0  0  0
    9.8932   11.6736   19.0677 O   0  0  0  0  0  0  0  0  0  0  0  0
    6.4470    4.5850   22.2321 C   0  0  0  0  0  0  0  0  0  0  0  0
    8.4619    6.9895   22.2968 C   0  0  0  0  0  0  0  0  0  0  0  0
   12.2747    7.5102   20.0420 C   0  0  0  0  0  0  0  0  0  0  0  0
   14.2544    6.2142   19.4191 C   0  0  0  0  0  0  0  0  0  0  0  0
   13.0695    6.3705   20.0375 N   0  0  0  0  0  0  0  0  0  0  0  0
    9.1913    8.0876   21.8361 N   0  0  0  0  0  0  0  0  0  0  0  0
   10.4739    9.4813   20.2889 C   0  0  0  0  0  0  0  0  0  0  0  0
    7.5551    7.1270   23.1200 O   0  0  0  0  0  0  0  0  0  0  0  0
  1 11  4  0
  1 21  4  0
  2  4  1  0
  2  8  1  0
  2 11  1  0
  3 10  4  0
  3 14  4  0
  4  5  1  0
  4 18  2  0
  6 12  1  0
  6 17  4  0
  6 23  4  0
  7  9  1  0
  7 13  4  0
  7 19  4  0
  9 20  1  0
 10 19  4  0
 11 25  4  0
 13 14  4  0
 15 16  4  0
 15 17  4  0
 15 21  4  0
 16 24  1  0
 16 25  4  0
 20 24  1  0
 20 26  2  0
 21 23  4  0
 22 23  1  0
M  END
$$$$

 Created by Python create_sdf_string function

 26 28  0  0  0  0  0  0  0  0999 V2000
   12.4616    8.6700   19.4180 N   0  0  0  0  0  0  0  0  0  0  0  0
   11.8329   10.8148   18.6769 N   0  0  0  0  0  0  0  0  0  0  0  0
    6.1021    2.5564   21.0678 C   0  0  0  0  0  0  0  0  0  0  0  0
   10.9097   11.8051   18.4804 C   0  0  0  0  0  0  0  0  0  0  0  0
   11.2280   12.9135   17.5669 C   0  0  0  0  0  0  0  0  0  0  0  0
   12.3782    5.4231   20.7777 C   0  0  0  0  0  0  0  0  0  0  0  0
    7.7365    4.6508   21.6987 C   0  0  0  0  0  0  0  0  0  0  0  0
   13.0186   11.0102   18.0020 C   0  0  0  0  0  0  0  0  0  0  0  0
    8.6628    5.7088   21.8871 N   0  0  0  0  0  0  0  0  0  0  0  0
    5.6516    3.5258   21.9140 C   0  0  0  0  0  0  0  0  0  0  0  0
   11.5863    9.6815   19.4539 C   0  0  0  0  0  0  0  0  0  0  0  0
   12.9648    4.1543   20.9205 C   0  0  0  0  0  0  0  0  0  0  0  0
    8.2089    3.6265   20.8929 C   0  0  0  0  0  0  0  0  0  0  0  0
    7.3827    2.5724   20.5432 C   0  0  0  0  0  0  0  0  0  0  0  0
   11.1529    7.2750   20.8025 C   0  0  0  0  0  0  0  0  0  0  0  0
   10.2573    8.3215   20.9827 C   0  0  0  0  0  0  0  0  0  0  0  0
   11.1606    5.9378   21.2366 N   0  0  0  0  0  0  0  0  0  0  0  0
    9.8932   11.6736   19.0677 O   0  0  0  0  0  0  0  0  0  0  0  0
    6.4470    4.5850   22.2321 C   0  0  0  0  0  0  0  0  0  0  0  0
    8.4619    6.9895   22.2968 C   0  0  0  0  0  0  0  0  0  0  0  0
   12.2747    7.5102   20.0420 C   0  0  0  0  0  0  0  0  0  0  0  0
   14.2544    6.2142   19.4191 C   0  0  0  0  0  0  0  0  0  0  0  0
   13.0695    6.3705   20.0375 N   0  0  0  0  0  0  0  0  0  0  0  0
    9.1913    8.0876   21.8361 N   0  0  0  0  0  0  0  0  0  0  0  0
   10.4739    9.4813   20.2889 C   0  0  0  0  0  0  0  0  0  0  0  0
    7.5551    7.1270   23.1200 O   0  0  0  0  0  0  0  0  0  0  0  0
  1 11  4  0
  1 21  4  0
  2  4  1  0
  2  8  1  0
  2 11  1  0
  3 10  4  0
  3 14  4  0
  4  5  1  0
  4 18  2  0
  6 12  1  0
  6 17  4  0
  6 23  4  0
  7  9  1  0
  7 13  4  0
  7 19  4  0
  9 20  1  0
 10 19  4  0
 11 25  4  0
 13 14  4  0
 15 16  4  0
 15 17  4  0
 15 21  4  0
 16 24  1  0
 16 25  4  0
 20 24  1  0
 20 26  2  0
 21 23  4  0
 22 23  1  0
M  END
$$$$

 Created by Python create_sdf_string function

 26 28  0  0  0  0  0  0  0  0999 V2000
   12.4616    8.6700   19.4180 N   0  0  0  0  0  0  0  0  0  0  0  0
   11.8329   10.8148   18.6769 N   0  0  0  0  0  0  0  0  0  0  0  0
    6.1021    2.5564   21.0678 C   0  0  0  0  0  0  0  0  0  0  0  0
   10.9097   11.8051   18.4804 C   0  0  0  0  0  0  0  0  0  0  0  0
   11.2280   12.9135   17.5669 C   0  0  0  0  0  0  0  0  0  0  0  0
   12.3782    5.4231   20.7777 C   0  0  0  0  0  0  0  0  0  0  0  0
    7.7365    4.6508   21.6987 C   0  0  0  0  0  0  0  0  0  0  0  0
   13.0186   11.0102   18.0020 C   0  0  0  0  0  0  0  0  0  0  0  0
    8.6628    5.7088   21.8871 N   0  0  0  0  0  0  0  0  0  0  0  0
    5.6516    3.5258   21.9140 C   0  0  0  0  0  0  0  0  0  0  0  0
   11.5863    9.6815   19.4539 C   0  0  0  0  0  0  0  0  0  0  0  0
   12.9648    4.1543   20.9205 C   0  0  0  0  0  0  0  0  0  0  0  0
    8.2089    3.6265   20.8929 C   0  0  0  0  0  0  0  0  0  0  0  0
    7.3827    2.5724   20.5432 C   0  0  0  0  0  0  0  0  0  0  0  0
   11.1529    7.2750   20.8025 C   0  0  0  0  0  0  0  0  0  0  0  0
   10.2573    8.3215   20.9827 C   0  0  0  0  0  0  0  0  0  0  0  0
   11.1606    5.9378   21.2366 N   0  0  0  0  0  0  0  0  0  0  0  0
    9.8932   11.6736   19.0677 O   0  0  0  0  0  0  0  0  0  0  0  0
    6.4470    4.5850   22.2321 C   0  0  0  0  0  0  0  0  0  0  0  0
    8.4619    6.9895   22.2968 C   0  0  0  0  0  0  0  0  0  0  0  0
   12.2747    7.5102   20.0420 C   0  0  0  0  0  0  0  0  0  0  0  0
   14.2544    6.2142   19.4191 C   0  0  0  0  0  0  0  0  0  0  0  0
   13.0695    6.3705   20.0375 N   0  0  0  0  0  0  0  0  0  0  0  0
    9.1913    8.0876   21.8361 N   0  0  0  0  0  0  0  0  0  0  0  0
   10.4739    9.4813   20.2889 C   0  0  0  0  0  0  0  0  0  0  0  0
    7.5551    7.1270   23.1200 O   0  0  0  0  0  0  0  0  0  0  0  0
  1 11  4  0
  1 21  4  0
  2  4  1  0
  2  8  1  0
  2 11  1  0
  3 10  4  0
  3 14  4  0
  4  5  1  0
  4 18  2  0
  6 12  1  0
  6 17  4  0
  6 23  4  0
  7  9  1  0
  7 13  4  0
  7 19  4  0
  9 20  1  0
 10 19  4  0
 11 25  4  0
 13 14  4  0
 15 16  4  0
 15 17  4  0
 15 21  4  0
 16 24  1  0
 16 25  4  0
 20 24  1  0
 20 26  2  0
 21 23  4  0
 22 23  1  0
M  END
$$$$

 Created by Python create_sdf_string function

 26 28  0  0  0  0  0  0  0  0999 V2000
   12.4616    8.6700   19.4180 N   0  0  0  0  0  0  0  0  0  0  0  0
   11.8329   10.8148   18.6769 N   0  0  0  0  0  0  0  0  0  0  0  0
    6.1021    2.5564   21.0678 C   0  0  0  0  0  0  0  0  0  0  0  0
   10.9097   11.8051   18.4804 C   0  0  0  0  0  0  0  0  0  0  0  0
   11.2280   12.9135   17.5669 C   0  0  0  0  0  0  0  0  0  0  0  0
   12.3782    5.4231   20.7777 C   0  0  0  0  0  0  0  0  0  0  0  0
    7.7365    4.6508   21.6987 C   0  0  0  0  0  0  0  0  0  0  0  0
   13.0186   11.0102   18.0020 C   0  0  0  0  0  0  0  0  0  0  0  0
    8.6628    5.7088   21.8871 N   0  0  0  0  0  0  0  0  0  0  0  0
    5.6516    3.5258   21.9140 C   0  0  0  0  0  0  0  0  0  0  0  0
   11.5863    9.6815   19.4539 C   0  0  0  0  0  0  0  0  0  0  0  0
   12.9648    4.1543   20.9205 C   0  0  0  0  0  0  0  0  0  0  0  0
    8.2089    3.6265   20.8929 C   0  0  0  0  0  0  0  0  0  0  0  0
    7.3827    2.5724   20.5432 C   0  0  0  0  0  0  0  0  0  0  0  0
   11.1529    7.2750   20.8025 C   0  0  0  0  0  0  0  0  0  0  0  0
   10.2573    8.3215   20.9827 C   0  0  0  0  0  0  0  0  0  0  0  0
   11.1606    5.9378   21.2366 N   0  0  0  0  0  0  0  0  0  0  0  0
    9.8932   11.6736   19.0677 O   0  0  0  0  0  0  0  0  0  0  0  0
    6.4470    4.5850   22.2321 C   0  0  0  0  0  0  0  0  0  0  0  0
    8.4619    6.9895   22.2968 C   0  0  0  0  0  0  0  0  0  0  0  0
   12.2747    7.5102   20.0420 C   0  0  0  0  0  0  0  0  0  0  0  0
   14.2544    6.2142   19.4191 C   0  0  0  0  0  0  0  0  0  0  0  0
   13.0695    6.3705   20.0375 N   0  0  0  0  0  0  0  0  0  0  0  0
    9.1913    8.0876   21.8361 N   0  0  0  0  0  0  0  0  0  0  0  0
   10.4739    9.4813   20.2889 C   0  0  0  0  0  0  0  0  0  0  0  0
    7.5551    7.1270   23.1200 O   0  0  0  0  0  0  0  0  0  0  0  0
  1 11  4  0
  1 21  4  0
  2  4  1  0
  2  8  1  0
  2 11  1  0
  3 10  4  0
  3 14  4  0
  4  5  1  0
  4 18  2  0
  6 12  1  0
  6 17  4  0
  6 23  4  0
  7  9  1  0
  7 13  4  0
  7 19  4  0
  9 20  1  0
 10 19  4  0
 11 25  4  0
 13 14  4  0
 15 16  4  0
 15 17  4  0
 15 21  4  0
 16 24  1  0
 16 25  4  0
 20 24  1  0
 20 26  2  0
 21 23  4  0
 22 23  1  0
M  END
$$$$

 Created by Python create_sdf_string function

 26 28  0  0  0  0  0  0  0  0999 V2000
   12.4616    8.6700   19.4180 N   0  0  0  0  0  0  0  0  0  0  0  0
   11.8329   10.8148   18.6769 N   0  0  0  0  0  0  0  0  0  0  0  0
    6.1021    2.5564   21.0678 C   0  0  0  0  0  0  0  0  0  0  0  0
   10.9097   11.8051   18.4804 C   0  0  0  0  0  0  0  0  0  0  0  0
   11.2280   12.9135   17.5669 C   0  0  0  0  0  0  0  0  0  0  0  0
   12.3782    5.4231   20.7777 C   0  0  0  0  0  0  0  0  0  0  0  0
    7.7365    4.6508   21.6987 C   0  0  0  0  0  0  0  0  0  0  0  0
   13.0186   11.0102   18.0020 C   0  0  0  0  0  0  0  0  0  0  0  0
    8.6628    5.7088   21.8871 N   0  0  0  0  0  0  0  0  0  0  0  0
    5.6516    3.5258   21.9140 C   0  0  0  0  0  0  0  0  0  0  0  0
   11.5863    9.6815   19.4539 C   0  0  0  0  0  0  0  0  0  0  0  0
   12.9648    4.1543   20.9205 C   0  0  0  0  0  0  0  0  0  0  0  0
    8.2089    3.6265   20.8929 C   0  0  0  0  0  0  0  0  0  0  0  0
    7.3827    2.5724   20.5432 C   0  0  0  0  0  0  0  0  0  0  0  0
   11.1529    7.2750   20.8025 C   0  0  0  0  0  0  0  0  0  0  0  0
   10.2573    8.3215   20.9827 C   0  0  0  0  0  0  0  0  0  0  0  0
   11.1606    5.9378   21.2366 N   0  0  0  0  0  0  0  0  0  0  0  0
    9.8932   11.6736   19.0677 O   0  0  0  0  0  0  0  0  0  0  0  0
    6.4470    4.5850   22.2321 C   0  0  0  0  0  0  0  0  0  0  0  0
    8.4619    6.9895   22.2968 C   0  0  0  0  0  0  0  0  0  0  0  0
   12.2747    7.5102   20.0420 C   0  0  0  0  0  0  0  0  0  0  0  0
   14.2544    6.2142   19.4191 C   0  0  0  0  0  0  0  0  0  0  0  0
   13.0695    6.3705   20.0375 N   0  0  0  0  0  0  0  0  0  0  0  0
    9.1913    8.0876   21.8361 N   0  0  0  0  0  0  0  0  0  0  0  0
   10.4739    9.4813   20.2889 C   0  0  0  0  0  0  0  0  0  0  0  0
    7.5551    7.1270   23.1200 O   0  0  0  0  0  0  0  0  0  0  0  0
  1 11  4  0
  1 21  4  0
  2  4  1  0
  2  8  1  0
  2 11  1  0
  3 10  4  0
  3 14  4  0
  4  5  1  0
  4 18  2  0
  6 12  1  0
  6 17  4  0
  6 23  4  0
  7  9  1  0
  7 13  4  0
  7 19  4  0
  9 20  1  0
 10 19  4  0
 11 25  4  0
 13 14  4  0
 15 16  4  0
 15 17  4  0
 15 21  4  0
 16 24  1  0
 16 25  4  0
 20 24  1  0
 20 26  2  0
 21 23  4  0
 22 23  1  0
M  END
$$$$

 Created by Python create_sdf_string function

 26 28  0  0  0  0  0  0  0  0999 V2000
   12.4616    8.6700   19.4180 N   0  0  0  0  0  0  0  0  0  0  0  0
   11.8329   10.8148   18.6769 N   0  0  0  0  0  0  0  0  0  0  0  0
    6.1021    2.5564   21.0678 C   0  0  0  0  0  0  0  0  0  0  0  0
   10.9097   11.8051   18.4804 C   0  0  0  0  0  0  0  0  0  0  0  0
   11.2280   12.9135   17.5669 C   0  0  0  0  0  0  0  0  0  0  0  0
   12.3782    5.4231   20.7777 C   0  0  0  0  0  0  0  0  0  0  0  0
    7.7365    4.6508   21.6987 C   0  0  0  0  0  0  0  0  0  0  0  0
   13.0186   11.0102   18.0020 C   0  0  0  0  0  0  0  0  0  0  0  0
    8.6628    5.7088   21.8871 N   0  0  0  0  0  0  0  0  0  0  0  0
    5.6516    3.5258   21.9140 C   0  0  0  0  0  0  0  0  0  0  0  0
   11.5863    9.6815   19.4539 C   0  0  0  0  0  0  0  0  0  0  0  0
   12.9648    4.1543   20.9205 C   0  0  0  0  0  0  0  0  0  0  0  0
    8.2089    3.6265   20.8929 C   0  0  0  0  0  0  0  0  0  0  0  0
    7.3827    2.5724   20.5432 C   0  0  0  0  0  0  0  0  0  0  0  0
   11.1529    7.2750   20.8025 C   0  0  0  0  0  0  0  0  0  0  0  0
   10.2573    8.3215   20.9827 C   0  0  0  0  0  0  0  0  0  0  0  0
   11.1606    5.9378   21.2366 N   0  0  0  0  0  0  0  0  0  0  0  0
    9.8932   11.6736   19.0677 O   0  0  0  0  0  0  0  0  0  0  0  0
    6.4470    4.5850   22.2321 C   0  0  0  0  0  0  0  0  0  0  0  0
    8.4619    6.9895   22.2968 C   0  0  0  0  0  0  0  0  0  0  0  0
   12.2747    7.5102   20.0420 C   0  0  0  0  0  0  0  0  0  0  0  0
   14.2544    6.2142   19.4191 C   0  0  0  0  0  0  0  0  0  0  0  0
   13.0695    6.3705   20.0375 N   0  0  0  0  0  0  0  0  0  0  0  0
    9.1913    8.0876   21.8361 N   0  0  0  0  0  0  0  0  0  0  0  0
   10.4739    9.4813   20.2889 C   0  0  0  0  0  0  0  0  0  0  0  0
    7.5551    7.1270   23.1200 O   0  0  0  0  0  0  0  0  0  0  0  0
  1 11  4  0
  1 21  4  0
  2  4  1  0
  2  8  1  0
  2 11  1  0
  3 10  4  0
  3 14  4  0
  4  5  1  0
  4 18  2  0
  6 12  1  0
  6 17  4  0
  6 23  4  0
  7  9  1  0
  7 13  4  0
  7 19  4  0
  9 20  1  0
 10 19  4  0
 11 25  4  0
 13 14  4  0
 15 16  4  0
 15 17  4  0
 15 21  4  0
 16 24  1  0
 16 25  4  0
 20 24  1  0
 20 26  2  0
 21 23  4  0
 22 23  1  0
M  END
$$$$

 Created by Python create_sdf_string function

 26 28  0  0  0  0  0  0  0  0999 V2000
   12.4616    8.6700   19.4180 N   0  0  0  0  0  0  0  0  0  0  0  0
   11.8329   10.8148   18.6769 N   0  0  0  0  0  0  0  0  0  0  0  0
    6.1021    2.5564   21.0678 C   0  0  0  0  0  0  0  0  0  0  0  0
   10.9097   11.8051   18.4804 C   0  0  0  0  0  0  0  0  0  0  0  0
   11.2280   12.9135   17.5669 C   0  0  0  0  0  0  0  0  0  0  0  0
   12.3782    5.4231   20.7777 C   0  0  0  0  0  0  0  0  0  0  0  0
    7.7365    4.6508   21.6987 C   0  0  0  0  0  0  0  0  0  0  0  0
   13.0186   11.0102   18.0020 C   0  0  0  0  0  0  0  0  0  0  0  0
    8.6628    5.7088   21.8871 N   0  0  0  0  0  0  0  0  0  0  0  0
    5.6516    3.5258   21.9140 C   0  0  0  0  0  0  0  0  0  0  0  0
   11.5863    9.6815   19.4539 C   0  0  0  0  0  0  0  0  0  0  0  0
   12.9648    4.1543   20.9205 C   0  0  0  0  0  0  0  0  0  0  0  0
    8.2089    3.6265   20.8929 C   0  0  0  0  0  0  0  0  0  0  0  0
    7.3827    2.5724   20.5432 C   0  0  0  0  0  0  0  0  0  0  0  0
   11.1529    7.2750   20.8025 C   0  0  0  0  0  0  0  0  0  0  0  0
   10.2573    8.3215   20.9827 C   0  0  0  0  0  0  0  0  0  0  0  0
   11.1606    5.9378   21.2366 N   0  0  0  0  0  0  0  0  0  0  0  0
    9.8932   11.6736   19.0677 O   0  0  0  0  0  0  0  0  0  0  0  0
    6.4470    4.5850   22.2321 C   0  0  0  0  0  0  0  0  0  0  0  0
    8.4619    6.9895   22.2968 C   0  0  0  0  0  0  0  0  0  0  0  0
   12.2747    7.5102   20.0420 C   0  0  0  0  0  0  0  0  0  0  0  0
   14.2544    6.2142   19.4191 C   0  0  0  0  0  0  0  0  0  0  0  0
   13.0695    6.3705   20.0375 N   0  0  0  0  0  0  0  0  0  0  0  0
    9.1913    8.0876   21.8361 N   0  0  0  0  0  0  0  0  0  0  0  0
   10.4739    9.4813   20.2889 C   0  0  0  0  0  0  0  0  0  0  0  0
    7.5551    7.1270   23.1200 O   0  0  0  0  0  0  0  0  0  0  0  0
  1 11  4  0
  1 21  4  0
  2  4  1  0
  2  8  1  0
  2 11  1  0
  3 10  4  0
  3 14  4  0
  4  5  1  0
  4 18  2  0
  6 12  1  0
  6 17  4  0
  6 23  4  0
  7  9  1  0
  7 13  4  0
  7 19  4  0
  9 20  1  0
 10 19  4  0
 11 25  4  0
 13 14  4  0
 15 16  4  0
 15 17  4  0
 15 21  4  0
 16 24  1  0
 16 25  4  0
 20 24  1  0
 20 26  2  0
 21 23  4  0
 22 23  1  0
M  END
$$$$

 Created by Python create_sdf_string function

 26 28  0  0  0  0  0  0  0  0999 V2000
   12.4616    8.6700   19.4180 N   0  0  0  0  0  0  0  0  0  0  0  0
   11.8329   10.8148   18.6769 N   0  0  0  0  0  0  0  0  0  0  0  0
    6.1021    2.5564   21.0678 C   0  0  0  0  0  0  0  0  0  0  0  0
   10.9097   11.8051   18.4804 C   0  0  0  0  0  0  0  0  0  0  0  0
   11.2280   12.9135   17.5669 C   0  0  0  0  0  0  0  0  0  0  0  0
   12.3782    5.4231   20.7777 C   0  0  0  0  0  0  0  0  0  0  0  0
    7.7365    4.6508   21.6987 C   0  0  0  0  0  0  0  0  0  0  0  0
   13.0186   11.0102   18.0020 C   0  0  0  0  0  0  0  0  0  0  0  0
    8.6628    5.7088   21.8871 N   0  0  0  0  0  0  0  0  0  0  0  0
    5.6516    3.5258   21.9140 C   0  0  0  0  0  0  0  0  0  0  0  0
   11.5863    9.6815   19.4539 C   0  0  0  0  0  0  0  0  0  0  0  0
   12.9648    4.1543   20.9205 C   0  0  0  0  0  0  0  0  0  0  0  0
    8.2089    3.6265   20.8929 C   0  0  0  0  0  0  0  0  0  0  0  0
    7.3827    2.5724   20.5432 C   0  0  0  0  0  0  0  0  0  0  0  0
   11.1529    7.2750   20.8025 C   0  0  0  0  0  0  0  0  0  0  0  0
   10.2573    8.3215   20.9827 C   0  0  0  0  0  0  0  0  0  0  0  0
   11.1606    5.9378   21.2366 N   0  0  0  0  0  0  0  0  0  0  0  0
    9.8932   11.6736   19.0677 O   0  0  0  0  0  0  0  0  0  0  0  0
    6.4470    4.5850   22.2321 C   0  0  0  0  0  0  0  0  0  0  0  0
    8.4619    6.9895   22.2968 C   0  0  0  0  0  0  0  0  0  0  0  0
   12.2747    7.5102   20.0420 C   0  0  0  0  0  0  0  0  0  0  0  0
   14.2544    6.2142   19.4191 C   0  0  0  0  0  0  0  0  0  0  0  0
   13.0695    6.3705   20.0375 N   0  0  0  0  0  0  0  0  0  0  0  0
    9.1913    8.0876   21.8361 N   0  0  0  0  0  0  0  0  0  0  0  0
   10.4739    9.4813   20.2889 C   0  0  0  0  0  0  0  0  0  0  0  0
    7.5551    7.1270   23.1200 O   0  0  0  0  0  0  0  0  0  0  0  0
  1 11  4  0
  1 21  4  0
  2  4  1  0
  2  8  1  0
  2 11  1  0
  3 10  4  0
  3 14  4  0
  4  5  1  0
  4 18  2  0
  6 12  1  0
  6 17  4  0
  6 23  4  0
  7  9  1  0
  7 13  4  0
  7 19  4  0
  9 20  1  0
 10 19  4  0
 11 25  4  0
 13 14  4  0
 15 16  4  0
 15 17  4  0
 15 21  4  0
 16 24  1  0
 16 25  4  0
 20 24  1  0
 20 26  2  0
 21 23  4  0
 22 23  1  0
M  END
$$$$

 Created by Python create_sdf_string function

 26 28  0  0  0  0  0  0  0  0999 V2000
   12.4616    8.6700   19.4180 N   0  0  0  0  0  0  0  0  0  0  0  0
   11.8329   10.8148   18.6769 N   0  0  0  0  0  0  0  0  0  0  0  0
    6.1021    2.5564   21.0678 C   0  0  0  0  0  0  0  0  0  0  0  0
   10.9097   11.8051   18.4804 C   0  0  0  0  0  0  0  0  0  0  0  0
   11.2280   12.9135   17.5669 C   0  0  0  0  0  0  0  0  0  0  0  0
   12.3782    5.4231   20.7777 C   0  0  0  0  0  0  0  0  0  0  0  0
    7.7365    4.6508   21.6987 C   0  0  0  0  0  0  0  0  0  0  0  0
   13.0186   11.0102   18.0020 C   0  0  0  0  0  0  0  0  0  0  0  0
    8.6628    5.7088   21.8871 N   0  0  0  0  0  0  0  0  0  0  0  0
    5.6516    3.5258   21.9140 C   0  0  0  0  0  0  0  0  0  0  0  0
   11.5863    9.6815   19.4539 C   0  0  0  0  0  0  0  0  0  0  0  0
   12.9648    4.1543   20.9205 C   0  0  0  0  0  0  0  0  0  0  0  0
    8.2089    3.6265   20.8929 C   0  0  0  0  0  0  0  0  0  0  0  0
    7.3827    2.5724   20.5432 C   0  0  0  0  0  0  0  0  0  0  0  0
   11.1529    7.2750   20.8025 C   0  0  0  0  0  0  0  0  0  0  0  0
   10.2573    8.3215   20.9827 C   0  0  0  0  0  0  0  0  0  0  0  0
   11.1606    5.9378   21.2366 N   0  0  0  0  0  0  0  0  0  0  0  0
    9.8932   11.6736   19.0677 O   0  0  0  0  0  0  0  0  0  0  0  0
    6.4470    4.5850   22.2321 C   0  0  0  0  0  0  0  0  0  0  0  0
    8.4619    6.9895   22.2968 C   0  0  0  0  0  0  0  0  0  0  0  0
   12.2747    7.5102   20.0420 C   0  0  0  0  0  0  0  0  0  0  0  0
   14.2544    6.2142   19.4191 C   0  0  0  0  0  0  0  0  0  0  0  0
   13.0695    6.3705   20.0375 N   0  0  0  0  0  0  0  0  0  0  0  0
    9.1913    8.0876   21.8361 N   0  0  0  0  0  0  0  0  0  0  0  0
   10.4739    9.4813   20.2889 C   0  0  0  0  0  0  0  0  0  0  0  0
    7.5551    7.1270   23.1200 O   0  0  0  0  0  0  0  0  0  0  0  0
  1 11  4  0
  1 21  4  0
  2  4  1  0
  2  8  1  0
  2 11  1  0
  3 10  4  0
  3 14  4  0
  4  5  1  0
  4 18  2  0
  6 12  1  0
  6 17  4  0
  6 23  4  0
  7  9  1  0
  7 13  4  0
  7 19  4  0
  9 20  1  0
 10 19  4  0
 11 25  4  0
 13 14  4  0
 15 16  4  0
 15 17  4  0
 15 21  4  0
 16 24  1  0
 16 25  4  0
 20 24  1  0
 20 26  2  0
 21 23  4  0
 22 23  1  0
M  END
$$$$

 Created by Python create_sdf_string function

 26 28  0  0  0  0  0  0  0  0999 V2000
   12.4616    8.6700   19.4180 N   0  0  0  0  0  0  0  0  0  0  0  0
   11.8329   10.8148   18.6769 N   0  0  0  0  0  0  0  0  0  0  0  0
    6.1021    2.5564   21.0678 C   0  0  0  0  0  0  0  0  0  0  0  0
   10.9097   11.8051   18.4804 C   0  0  0  0  0  0  0  0  0  0  0  0
   11.2280   12.9135   17.5669 C   0  0  0  0  0  0  0  0  0  0  0  0
   12.3782    5.4231   20.7777 C   0  0  0  0  0  0  0  0  0  0  0  0
    7.7365    4.6508   21.6987 C   0  0  0  0  0  0  0  0  0  0  0  0
   13.0186   11.0102   18.0020 C   0  0  0  0  0  0  0  0  0  0  0  0
    8.6628    5.7088   21.8871 N   0  0  0  0  0  0  0  0  0  0  0  0
    5.6516    3.5258   21.9140 C   0  0  0  0  0  0  0  0  0  0  0  0
   11.5863    9.6815   19.4539 C   0  0  0  0  0  0  0  0  0  0  0  0
   12.9648    4.1543   20.9205 C   0  0  0  0  0  0  0  0  0  0  0  0
    8.2089    3.6265   20.8929 C   0  0  0  0  0  0  0  0  0  0  0  0
    7.3827    2.5724   20.5432 C   0  0  0  0  0  0  0  0  0  0  0  0
   11.1529    7.2750   20.8025 C   0  0  0  0  0  0  0  0  0  0  0  0
   10.2573    8.3215   20.9827 C   0  0  0  0  0  0  0  0  0  0  0  0
   11.1606    5.9378   21.2366 N   0  0  0  0  0  0  0  0  0  0  0  0
    9.8932   11.6736   19.0677 O   0  0  0  0  0  0  0  0  0  0  0  0
    6.4470    4.5850   22.2321 C   0  0  0  0  0  0  0  0  0  0  0  0
    8.4619    6.9895   22.2968 C   0  0  0  0  0  0  0  0  0  0  0  0
   12.2747    7.5102   20.0420 C   0  0  0  0  0  0  0  0  0  0  0  0
   14.2544    6.2142   19.4191 C   0  0  0  0  0  0  0  0  0  0  0  0
   13.0695    6.3705   20.0375 N   0  0  0  0  0  0  0  0  0  0  0  0
    9.1913    8.0876   21.8361 N   0  0  0  0  0  0  0  0  0  0  0  0
   10.4739    9.4813   20.2889 C   0  0  0  0  0  0  0  0  0  0  0  0
    7.5551    7.1270   23.1200 O   0  0  0  0  0  0  0  0  0  0  0  0
  1 11  4  0
  1 21  4  0
  2  4  1  0
  2  8  1  0
  2 11  1  0
  3 10  4  0
  3 14  4  0
  4  5  1  0
  4 18  2  0
  6 12  1  0
  6 17  4  0
  6 23  4  0
  7  9  1  0
  7 13  4  0
  7 19  4  0
  9 20  1  0
 10 19  4  0
 11 25  4  0
 13 14  4  0
 15 16  4  0
 15 17  4  0
 15 21  4  0
 16 24  1  0
 16 25  4  0
 20 24  1  0
 20 26  2  0
 21 23  4  0
 22 23  1  0
M  END
$$$$

 Created by Python create_sdf_string function

 26 28  0  0  0  0  0  0  0  0999 V2000
   12.4616    8.6700   19.4180 N   0  0  0  0  0  0  0  0  0  0  0  0
   11.8329   10.8148   18.6769 N   0  0  0  0  0  0  0  0  0  0  0  0
    6.1021    2.5564   21.0678 C   0  0  0  0  0  0  0  0  0  0  0  0
   10.9097   11.8051   18.4804 C   0  0  0  0  0  0  0  0  0  0  0  0
   11.2280   12.9135   17.5669 C   0  0  0  0  0  0  0  0  0  0  0  0
   12.3782    5.4231   20.7777 C   0  0  0  0  0  0  0  0  0  0  0  0
    7.7365    4.6508   21.6987 C   0  0  0  0  0  0  0  0  0  0  0  0
   13.0186   11.0102   18.0020 C   0  0  0  0  0  0  0  0  0  0  0  0
    8.6628    5.7088   21.8871 N   0  0  0  0  0  0  0  0  0  0  0  0
    5.6516    3.5258   21.9140 C   0  0  0  0  0  0  0  0  0  0  0  0
   11.5863    9.6815   19.4539 C   0  0  0  0  0  0  0  0  0  0  0  0
   12.9648    4.1543   20.9205 C   0  0  0  0  0  0  0  0  0  0  0  0
    8.2089    3.6265   20.8929 C   0  0  0  0  0  0  0  0  0  0  0  0
    7.3827    2.5724   20.5432 C   0  0  0  0  0  0  0  0  0  0  0  0
   11.1529    7.2750   20.8025 C   0  0  0  0  0  0  0  0  0  0  0  0
   10.2573    8.3215   20.9827 C   0  0  0  0  0  0  0  0  0  0  0  0
   11.1606    5.9378   21.2366 N   0  0  0  0  0  0  0  0  0  0  0  0
    9.8932   11.6736   19.0677 O   0  0  0  0  0  0  0  0  0  0  0  0
    6.4470    4.5850   22.2321 C   0  0  0  0  0  0  0  0  0  0  0  0
    8.4619    6.9895   22.2968 C   0  0  0  0  0  0  0  0  0  0  0  0
   12.2747    7.5102   20.0420 C   0  0  0  0  0  0  0  0  0  0  0  0
   14.2544    6.2142   19.4191 C   0  0  0  0  0  0  0  0  0  0  0  0
   13.0695    6.3705   20.0375 N   0  0  0  0  0  0  0  0  0  0  0  0
    9.1913    8.0876   21.8361 N   0  0  0  0  0  0  0  0  0  0  0  0
   10.4739    9.4813   20.2889 C   0  0  0  0  0  0  0  0  0  0  0  0
    7.5551    7.1270   23.1200 O   0  0  0  0  0  0  0  0  0  0  0  0
  1 11  4  0
  1 21  4  0
  2  4  1  0
  2  8  1  0
  2 11  1  0
  3 10  4  0
  3 14  4  0
  4  5  1  0
  4 18  2  0
  6 12  1  0
  6 17  4  0
  6 23  4  0
  7  9  1  0
  7 13  4  0
  7 19  4  0
  9 20  1  0
 10 19  4  0
 11 25  4  0
 13 14  4  0
 15 16  4  0
 15 17  4  0
 15 21  4  0
 16 24  1  0
 16 25  4  0
 20 24  1  0
 20 26  2  0
 21 23  4  0
 22 23  1  0
M  END
$$$$

 Created by Python create_sdf_string function

 26 28  0  0  0  0  0  0  0  0999 V2000
   12.4616    8.6700   19.4180 N   0  0  0  0  0  0  0  0  0  0  0  0
   11.8329   10.8148   18.6769 N   0  0  0  0  0  0  0  0  0  0  0  0
    6.1021    2.5564   21.0678 C   0  0  0  0  0  0  0  0  0  0  0  0
   10.9097   11.8051   18.4804 C   0  0  0  0  0  0  0  0  0  0  0  0
   11.2280   12.9135   17.5669 C   0  0  0  0  0  0  0  0  0  0  0  0
   12.3782    5.4231   20.7777 C   0  0  0  0  0  0  0  0  0  0  0  0
    7.7365    4.6508   21.6987 C   0  0  0  0  0  0  0  0  0  0  0  0
   13.0186   11.0102   18.0020 C   0  0  0  0  0  0  0  0  0  0  0  0
    8.6628    5.7088   21.8871 N   0  0  0  0  0  0  0  0  0  0  0  0
    5.6516    3.5258   21.9140 C   0  0  0  0  0  0  0  0  0  0  0  0
   11.5863    9.6815   19.4539 C   0  0  0  0  0  0  0  0  0  0  0  0
   12.9648    4.1543   20.9205 C   0  0  0  0  0  0  0  0  0  0  0  0
    8.2089    3.6265   20.8929 C   0  0  0  0  0  0  0  0  0  0  0  0
    7.3827    2.5724   20.5432 C   0  0  0  0  0  0  0  0  0  0  0  0
   11.1529    7.2750   20.8025 C   0  0  0  0  0  0  0  0  0  0  0  0
   10.2573    8.3215   20.9827 C   0  0  0  0  0  0  0  0  0  0  0  0
   11.1606    5.9378   21.2366 N   0  0  0  0  0  0  0  0  0  0  0  0
    9.8932   11.6736   19.0677 O   0  0  0  0  0  0  0  0  0  0  0  0
    6.4470    4.5850   22.2321 C   0  0  0  0  0  0  0  0  0  0  0  0
    8.4619    6.9895   22.2968 C   0  0  0  0  0  0  0  0  0  0  0  0
   12.2747    7.5102   20.0420 C   0  0  0  0  0  0  0  0  0  0  0  0
   14.2544    6.2142   19.4191 C   0  0  0  0  0  0  0  0  0  0  0  0
   13.0695    6.3705   20.0375 N   0  0  0  0  0  0  0  0  0  0  0  0
    9.1913    8.0876   21.8361 N   0  0  0  0  0  0  0  0  0  0  0  0
   10.4739    9.4813   20.2889 C   0  0  0  0  0  0  0  0  0  0  0  0
    7.5551    7.1270   23.1200 O   0  0  0  0  0  0  0  0  0  0  0  0
  1 11  4  0
  1 21  4  0
  2  4  1  0
  2  8  1  0
  2 11  1  0
  3 10  4  0
  3 14  4  0
  4  5  1  0
  4 18  2  0
  6 12  1  0
  6 17  4  0
  6 23  4  0
  7  9  1  0
  7 13  4  0
  7 19  4  0
  9 20  1  0
 10 19  4  0
 11 25  4  0
 13 14  4  0
 15 16  4  0
 15 17  4  0
 15 21  4  0
 16 24  1  0
 16 25  4  0
 20 24  1  0
 20 26  2  0
 21 23  4  0
 22 23  1  0
M  END
$$$$

 Created by Python create_sdf_string function

 26 28  0  0  0  0  0  0  0  0999 V2000
   12.4616    8.6700   19.4180 N   0  0  0  0  0  0  0  0  0  0  0  0
   11.8329   10.8148   18.6769 N   0  0  0  0  0  0  0  0  0  0  0  0
    6.1021    2.5564   21.0678 C   0  0  0  0  0  0  0  0  0  0  0  0
   10.9097   11.8051   18.4804 C   0  0  0  0  0  0  0  0  0  0  0  0
   11.2280   12.9135   17.5669 C   0  0  0  0  0  0  0  0  0  0  0  0
   12.3782    5.4231   20.7777 C   0  0  0  0  0  0  0  0  0  0  0  0
    7.7365    4.6508   21.6987 C   0  0  0  0  0  0  0  0  0  0  0  0
   13.0186   11.0102   18.0020 C   0  0  0  0  0  0  0  0  0  0  0  0
    8.6628    5.7088   21.8871 N   0  0  0  0  0  0  0  0  0  0  0  0
    5.6516    3.5258   21.9140 C   0  0  0  0  0  0  0  0  0  0  0  0
   11.5863    9.6815   19.4539 C   0  0  0  0  0  0  0  0  0  0  0  0
   12.9648    4.1543   20.9205 C   0  0  0  0  0  0  0  0  0  0  0  0
    8.2089    3.6265   20.8929 C   0  0  0  0  0  0  0  0  0  0  0  0
    7.3827    2.5724   20.5432 C   0  0  0  0  0  0  0  0  0  0  0  0
   11.1529    7.2750   20.8025 C   0  0  0  0  0  0  0  0  0  0  0  0
   10.2573    8.3215   20.9827 C   0  0  0  0  0  0  0  0  0  0  0  0
   11.1606    5.9378   21.2366 N   0  0  0  0  0  0  0  0  0  0  0  0
    9.8932   11.6736   19.0677 O   0  0  0  0  0  0  0  0  0  0  0  0
    6.4470    4.5850   22.2321 C   0  0  0  0  0  0  0  0  0  0  0  0
    8.4619    6.9895   22.2968 C   0  0  0  0  0  0  0  0  0  0  0  0
   12.2747    7.5102   20.0420 C   0  0  0  0  0  0  0  0  0  0  0  0
   14.2544    6.2142   19.4191 C   0  0  0  0  0  0  0  0  0  0  0  0
   13.0695    6.3705   20.0375 N   0  0  0  0  0  0  0  0  0  0  0  0
    9.1913    8.0876   21.8361 N   0  0  0  0  0  0  0  0  0  0  0  0
   10.4739    9.4813   20.2889 C   0  0  0  0  0  0  0  0  0  0  0  0
    7.5551    7.1270   23.1200 O   0  0  0  0  0  0  0  0  0  0  0  0
  1 11  4  0
  1 21  4  0
  2  4  1  0
  2  8  1  0
  2 11  1  0
  3 10  4  0
  3 14  4  0
  4  5  1  0
  4 18  2  0
  6 12  1  0
  6 17  4  0
  6 23  4  0
  7  9  1  0
  7 13  4  0
  7 19  4  0
  9 20  1  0
 10 19  4  0
 11 25  4  0
 13 14  4  0
 15 16  4  0
 15 17  4  0
 15 21  4  0
 16 24  1  0
 16 25  4  0
 20 24  1  0
 20 26  2  0
 21 23  4  0
 22 23  1  0
M  END
$$$$

 Created by Python create_sdf_string function

 26 28  0  0  0  0  0  0  0  0999 V2000
   12.4616    8.6700   19.4180 N   0  0  0  0  0  0  0  0  0  0  0  0
   11.8329   10.8148   18.6769 N   0  0  0  0  0  0  0  0  0  0  0  0
    6.1021    2.5564   21.0678 C   0  0  0  0  0  0  0  0  0  0  0  0
   10.9097   11.8051   18.4804 C   0  0  0  0  0  0  0  0  0  0  0  0
   11.2280   12.9135   17.5669 C   0  0  0  0  0  0  0  0  0  0  0  0
   12.3782    5.4231   20.7777 C   0  0  0  0  0  0  0  0  0  0  0  0
    7.7365    4.6508   21.6987 C   0  0  0  0  0  0  0  0  0  0  0  0
   13.0186   11.0102   18.0020 C   0  0  0  0  0  0  0  0  0  0  0  0
    8.6628    5.7088   21.8871 N   0  0  0  0  0  0  0  0  0  0  0  0
    5.6516    3.5258   21.9140 C   0  0  0  0  0  0  0  0  0  0  0  0
   11.5863    9.6815   19.4539 C   0  0  0  0  0  0  0  0  0  0  0  0
   12.9648    4.1543   20.9205 C   0  0  0  0  0  0  0  0  0  0  0  0
    8.2089    3.6265   20.8929 C   0  0  0  0  0  0  0  0  0  0  0  0
    7.3827    2.5724   20.5432 C   0  0  0  0  0  0  0  0  0  0  0  0
   11.1529    7.2750   20.8025 C   0  0  0  0  0  0  0  0  0  0  0  0
   10.2573    8.3215   20.9827 C   0  0  0  0  0  0  0  0  0  0  0  0
   11.1606    5.9378   21.2366 N   0  0  0  0  0  0  0  0  0  0  0  0
    9.8932   11.6736   19.0677 O   0  0  0  0  0  0  0  0  0  0  0  0
    6.4470    4.5850   22.2321 C   0  0  0  0  0  0  0  0  0  0  0  0
    8.4619    6.9895   22.2968 C   0  0  0  0  0  0  0  0  0  0  0  0
   12.2747    7.5102   20.0420 C   0  0  0  0  0  0  0  0  0  0  0  0
   14.2544    6.2142   19.4191 C   0  0  0  0  0  0  0  0  0  0  0  0
   13.0695    6.3705   20.0375 N   0  0  0  0  0  0  0  0  0  0  0  0
    9.1913    8.0876   21.8361 N   0  0  0  0  0  0  0  0  0  0  0  0
   10.4739    9.4813   20.2889 C   0  0  0  0  0  0  0  0  0  0  0  0
    7.5551    7.1270   23.1200 O   0  0  0  0  0  0  0  0  0  0  0  0
  1 11  4  0
  1 21  4  0
  2  4  1  0
  2  8  1  0
  2 11  1  0
  3 10  4  0
  3 14  4  0
  4  5  1  0
  4 18  2  0
  6 12  1  0
  6 17  4  0
  6 23  4  0
  7  9  1  0
  7 13  4  0
  7 19  4  0
  9 20  1  0
 10 19  4  0
 11 25  4  0
 13 14  4  0
 15 16  4  0
 15 17  4  0
 15 21  4  0
 16 24  1  0
 16 25  4  0
 20 24  1  0
 20 26  2  0
 21 23  4  0
 22 23  1  0
M  END
$$$$

 Created by Python create_sdf_string function

 26 28  0  0  0  0  0  0  0  0999 V2000
   12.4616    8.6700   19.4180 N   0  0  0  0  0  0  0  0  0  0  0  0
   11.8329   10.8148   18.6769 N   0  0  0  0  0  0  0  0  0  0  0  0
    6.1021    2.5564   21.0678 C   0  0  0  0  0  0  0  0  0  0  0  0
   10.9097   11.8051   18.4804 C   0  0  0  0  0  0  0  0  0  0  0  0
   11.2280   12.9135   17.5669 C   0  0  0  0  0  0  0  0  0  0  0  0
   12.3782    5.4231   20.7777 C   0  0  0  0  0  0  0  0  0  0  0  0
    7.7365    4.6508   21.6987 C   0  0  0  0  0  0  0  0  0  0  0  0
   13.0186   11.0102   18.0020 C   0  0  0  0  0  0  0  0  0  0  0  0
    8.6628    5.7088   21.8871 N   0  0  0  0  0  0  0  0  0  0  0  0
    5.6516    3.5258   21.9140 C   0  0  0  0  0  0  0  0  0  0  0  0
   11.5863    9.6815   19.4539 C   0  0  0  0  0  0  0  0  0  0  0  0
   12.9648    4.1543   20.9205 C   0  0  0  0  0  0  0  0  0  0  0  0
    8.2089    3.6265   20.8929 C   0  0  0  0  0  0  0  0  0  0  0  0
    7.3827    2.5724   20.5432 C   0  0  0  0  0  0  0  0  0  0  0  0
   11.1529    7.2750   20.8025 C   0  0  0  0  0  0  0  0  0  0  0  0
   10.2573    8.3215   20.9827 C   0  0  0  0  0  0  0  0  0  0  0  0
   11.1606    5.9378   21.2366 N   0  0  0  0  0  0  0  0  0  0  0  0
    9.8932   11.6736   19.0677 O   0  0  0  0  0  0  0  0  0  0  0  0
    6.4470    4.5850   22.2321 C   0  0  0  0  0  0  0  0  0  0  0  0
    8.4619    6.9895   22.2968 C   0  0  0  0  0  0  0  0  0  0  0  0
   12.2747    7.5102   20.0420 C   0  0  0  0  0  0  0  0  0  0  0  0
   14.2544    6.2142   19.4191 C   0  0  0  0  0  0  0  0  0  0  0  0
   13.0695    6.3705   20.0375 N   0  0  0  0  0  0  0  0  0  0  0  0
    9.1913    8.0876   21.8361 N   0  0  0  0  0  0  0  0  0  0  0  0
   10.4739    9.4813   20.2889 C   0  0  0  0  0  0  0  0  0  0  0  0
    7.5551    7.1270   23.1200 O   0  0  0  0  0  0  0  0  0  0  0  0
  1 11  4  0
  1 21  4  0
  2  4  1  0
  2  8  1  0
  2 11  1  0
  3 10  4  0
  3 14  4  0
  4  5  1  0
  4 18  2  0
  6 12  1  0
  6 17  4  0
  6 23  4  0
  7  9  1  0
  7 13  4  0
  7 19  4  0
  9 20  1  0
 10 19  4  0
 11 25  4  0
 13 14  4  0
 15 16  4  0
 15 17  4  0
 15 21  4  0
 16 24  1  0
 16 25  4  0
 20 24  1  0
 20 26  2  0
 21 23  4  0
 22 23  1  0
M  END
$$$$

 Created by Python create_sdf_string function

 26 28  0  0  0  0  0  0  0  0999 V2000
   12.4616    8.6700   19.4180 N   0  0  0  0  0  0  0  0  0  0  0  0
   11.8329   10.8148   18.6769 N   0  0  0  0  0  0  0  0  0  0  0  0
    6.1021    2.5564   21.0678 C   0  0  0  0  0  0  0  0  0  0  0  0
   10.9097   11.8051   18.4804 C   0  0  0  0  0  0  0  0  0  0  0  0
   11.2280   12.9135   17.5669 C   0  0  0  0  0  0  0  0  0  0  0  0
   12.3782    5.4231   20.7777 C   0  0  0  0  0  0  0  0  0  0  0  0
    7.7365    4.6508   21.6987 C   0  0  0  0  0  0  0  0  0  0  0  0
   13.0186   11.0102   18.0020 C   0  0  0  0  0  0  0  0  0  0  0  0
    8.6628    5.7088   21.8871 N   0  0  0  0  0  0  0  0  0  0  0  0
    5.6516    3.5258   21.9140 C   0  0  0  0  0  0  0  0  0  0  0  0
   11.5863    9.6815   19.4539 C   0  0  0  0  0  0  0  0  0  0  0  0
   12.9648    4.1543   20.9205 C   0  0  0  0  0  0  0  0  0  0  0  0
    8.2089    3.6265   20.8929 C   0  0  0  0  0  0  0  0  0  0  0  0
    7.3827    2.5724   20.5432 C   0  0  0  0  0  0  0  0  0  0  0  0
   11.1529    7.2750   20.8025 C   0  0  0  0  0  0  0  0  0  0  0  0
   10.2573    8.3215   20.9827 C   0  0  0  0  0  0  0  0  0  0  0  0
   11.1606    5.9378   21.2366 N   0  0  0  0  0  0  0  0  0  0  0  0
    9.8932   11.6736   19.0677 O   0  0  0  0  0  0  0  0  0  0  0  0
    6.4470    4.5850   22.2321 C   0  0  0  0  0  0  0  0  0  0  0  0
    8.4619    6.9895   22.2968 C   0  0  0  0  0  0  0  0  0  0  0  0
   12.2747    7.5102   20.0420 C   0  0  0  0  0  0  0  0  0  0  0  0
   14.2544    6.2142   19.4191 C   0  0  0  0  0  0  0  0  0  0  0  0
   13.0695    6.3705   20.0375 N   0  0  0  0  0  0  0  0  0  0  0  0
    9.1913    8.0876   21.8361 N   0  0  0  0  0  0  0  0  0  0  0  0
   10.4739    9.4813   20.2889 C   0  0  0  0  0  0  0  0  0  0  0  0
    7.5551    7.1270   23.1200 O   0  0  0  0  0  0  0  0  0  0  0  0
  1 11  4  0
  1 21  4  0
  2  4  1  0
  2  8  1  0
  2 11  1  0
  3 10  4  0
  3 14  4  0
  4  5  1  0
  4 18  2  0
  6 12  1  0
  6 17  4  0
  6 23  4  0
  7  9  1  0
  7 13  4  0
  7 19  4  0
  9 20  1  0
 10 19  4  0
 11 25  4  0
 13 14  4  0
 15 16  4  0
 15 17  4  0
 15 21  4  0
 16 24  1  0
 16 25  4  0
 20 24  1  0
 20 26  2  0
 21 23  4  0
 22 23  1  0
M  END
$$$$

 Created by Python create_sdf_string function

 26 28  0  0  0  0  0  0  0  0999 V2000
   12.4616    8.6700   19.4180 N   0  0  0  0  0  0  0  0  0  0  0  0
   11.8329   10.8148   18.6769 N   0  0  0  0  0  0  0  0  0  0  0  0
    6.1021    2.5564   21.0678 C   0  0  0  0  0  0  0  0  0  0  0  0
   10.9097   11.8051   18.4804 C   0  0  0  0  0  0  0  0  0  0  0  0
   11.2280   12.9135   17.5669 C   0  0  0  0  0  0  0  0  0  0  0  0
   12.3782    5.4231   20.7777 C   0  0  0  0  0  0  0  0  0  0  0  0
    7.7365    4.6508   21.6987 C   0  0  0  0  0  0  0  0  0  0  0  0
   13.0186   11.0102   18.0020 C   0  0  0  0  0  0  0  0  0  0  0  0
    8.6628    5.7088   21.8871 N   0  0  0  0  0  0  0  0  0  0  0  0
    5.6516    3.5258   21.9140 C   0  0  0  0  0  0  0  0  0  0  0  0
   11.5863    9.6815   19.4539 C   0  0  0  0  0  0  0  0  0  0  0  0
   12.9648    4.1543   20.9205 C   0  0  0  0  0  0  0  0  0  0  0  0
    8.2089    3.6265   20.8929 C   0  0  0  0  0  0  0  0  0  0  0  0
    7.3827    2.5724   20.5432 C   0  0  0  0  0  0  0  0  0  0  0  0
   11.1529    7.2750   20.8025 C   0  0  0  0  0  0  0  0  0  0  0  0
   10.2573    8.3215   20.9827 C   0  0  0  0  0  0  0  0  0  0  0  0
   11.1606    5.9378   21.2366 N   0  0  0  0  0  0  0  0  0  0  0  0
    9.8932   11.6736   19.0677 O   0  0  0  0  0  0  0  0  0  0  0  0
    6.4470    4.5850   22.2321 C   0  0  0  0  0  0  0  0  0  0  0  0
    8.4619    6.9895   22.2968 C   0  0  0  0  0  0  0  0  0  0  0  0
   12.2747    7.5102   20.0420 C   0  0  0  0  0  0  0  0  0  0  0  0
   14.2544    6.2142   19.4191 C   0  0  0  0  0  0  0  0  0  0  0  0
   13.0695    6.3705   20.0375 N   0  0  0  0  0  0  0  0  0  0  0  0
    9.1913    8.0876   21.8361 N   0  0  0  0  0  0  0  0  0  0  0  0
   10.4739    9.4813   20.2889 C   0  0  0  0  0  0  0  0  0  0  0  0
    7.5551    7.1270   23.1200 O   0  0  0  0  0  0  0  0  0  0  0  0
  1 11  4  0
  1 21  4  0
  2  4  1  0
  2  8  1  0
  2 11  1  0
  3 10  4  0
  3 14  4  0
  4  5  1  0
  4 18  2  0
  6 12  1  0
  6 17  4  0
  6 23  4  0
  7  9  1  0
  7 13  4  0
  7 19  4  0
  9 20  1  0
 10 19  4  0
 11 25  4  0
 13 14  4  0
 15 16  4  0
 15 17  4  0
 15 21  4  0
 16 24  1  0
 16 25  4  0
 20 24  1  0
 20 26  2  0
 21 23  4  0
 22 23  1  0
M  END
$$$$

 Created by Python create_sdf_string function

 26 28  0  0  0  0  0  0  0  0999 V2000
   12.4616    8.6700   19.4180 N   0  0  0  0  0  0  0  0  0  0  0  0
   11.8329   10.8148   18.6769 N   0  0  0  0  0  0  0  0  0  0  0  0
    6.1021    2.5564   21.0678 C   0  0  0  0  0  0  0  0  0  0  0  0
   10.9097   11.8051   18.4804 C   0  0  0  0  0  0  0  0  0  0  0  0
   11.2280   12.9135   17.5669 C   0  0  0  0  0  0  0  0  0  0  0  0
   12.3782    5.4231   20.7777 C   0  0  0  0  0  0  0  0  0  0  0  0
    7.7365    4.6508   21.6987 C   0  0  0  0  0  0  0  0  0  0  0  0
   13.0186   11.0102   18.0020 C   0  0  0  0  0  0  0  0  0  0  0  0
    8.6628    5.7088   21.8871 N   0  0  0  0  0  0  0  0  0  0  0  0
    5.6516    3.5258   21.9140 C   0  0  0  0  0  0  0  0  0  0  0  0
   11.5863    9.6815   19.4539 C   0  0  0  0  0  0  0  0  0  0  0  0
   12.9648    4.1543   20.9205 C   0  0  0  0  0  0  0  0  0  0  0  0
    8.2089    3.6265   20.8929 C   0  0  0  0  0  0  0  0  0  0  0  0
    7.3827    2.5724   20.5432 C   0  0  0  0  0  0  0  0  0  0  0  0
   11.1529    7.2750   20.8025 C   0  0  0  0  0  0  0  0  0  0  0  0
   10.2573    8.3215   20.9827 C   0  0  0  0  0  0  0  0  0  0  0  0
   11.1606    5.9378   21.2366 N   0  0  0  0  0  0  0  0  0  0  0  0
    9.8932   11.6736   19.0677 O   0  0  0  0  0  0  0  0  0  0  0  0
    6.4470    4.5850   22.2321 C   0  0  0  0  0  0  0  0  0  0  0  0
    8.4619    6.9895   22.2968 C   0  0  0  0  0  0  0  0  0  0  0  0
   12.2747    7.5102   20.0420 C   0  0  0  0  0  0  0  0  0  0  0  0
   14.2544    6.2142   19.4191 C   0  0  0  0  0  0  0  0  0  0  0  0
   13.0695    6.3705   20.0375 N   0  0  0  0  0  0  0  0  0  0  0  0
    9.1913    8.0876   21.8361 N   0  0  0  0  0  0  0  0  0  0  0  0
   10.4739    9.4813   20.2889 C   0  0  0  0  0  0  0  0  0  0  0  0
    7.5551    7.1270   23.1200 O   0  0  0  0  0  0  0  0  0  0  0  0
  1 11  4  0
  1 21  4  0
  2  4  1  0
  2  8  1  0
  2 11  1  0
  3 10  4  0
  3 14  4  0
  4  5  1  0
  4 18  2  0
  6 12  1  0
  6 17  4  0
  6 23  4  0
  7  9  1  0
  7 13  4  0
  7 19  4  0
  9 20  1  0
 10 19  4  0
 11 25  4  0
 13 14  4  0
 15 16  4  0
 15 17  4  0
 15 21  4  0
 16 24  1  0
 16 25  4  0
 20 24  1  0
 20 26  2  0
 21 23  4  0
 22 23  1  0
M  END
$$$$

 Created by Python create_sdf_string function

 26 28  0  0  0  0  0  0  0  0999 V2000
   12.4616    8.6700   19.4180 N   0  0  0  0  0  0  0  0  0  0  0  0
   11.8329   10.8148   18.6769 N   0  0  0  0  0  0  0  0  0  0  0  0
    6.1021    2.5564   21.0678 C   0  0  0  0  0  0  0  0  0  0  0  0
   10.9097   11.8051   18.4804 C   0  0  0  0  0  0  0  0  0  0  0  0
   11.2280   12.9135   17.5669 C   0  0  0  0  0  0  0  0  0  0  0  0
   12.3782    5.4231   20.7777 C   0  0  0  0  0  0  0  0  0  0  0  0
    7.7365    4.6508   21.6987 C   0  0  0  0  0  0  0  0  0  0  0  0
   13.0186   11.0102   18.0020 C   0  0  0  0  0  0  0  0  0  0  0  0
    8.6628    5.7088   21.8871 N   0  0  0  0  0  0  0  0  0  0  0  0
    5.6516    3.5258   21.9140 C   0  0  0  0  0  0  0  0  0  0  0  0
   11.5863    9.6815   19.4539 C   0  0  0  0  0  0  0  0  0  0  0  0
   12.9648    4.1543   20.9205 C   0  0  0  0  0  0  0  0  0  0  0  0
    8.2089    3.6265   20.8929 C   0  0  0  0  0  0  0  0  0  0  0  0
    7.3827    2.5724   20.5432 C   0  0  0  0  0  0  0  0  0  0  0  0
   11.1529    7.2750   20.8025 C   0  0  0  0  0  0  0  0  0  0  0  0
   10.2573    8.3215   20.9827 C   0  0  0  0  0  0  0  0  0  0  0  0
   11.1606    5.9378   21.2366 N   0  0  0  0  0  0  0  0  0  0  0  0
    9.8932   11.6736   19.0677 O   0  0  0  0  0  0  0  0  0  0  0  0
    6.4470    4.5850   22.2321 C   0  0  0  0  0  0  0  0  0  0  0  0
    8.4619    6.9895   22.2968 C   0  0  0  0  0  0  0  0  0  0  0  0
   12.2747    7.5102   20.0420 C   0  0  0  0  0  0  0  0  0  0  0  0
   14.2544    6.2142   19.4191 C   0  0  0  0  0  0  0  0  0  0  0  0
   13.0695    6.3705   20.0375 N   0  0  0  0  0  0  0  0  0  0  0  0
    9.1913    8.0876   21.8361 N   0  0  0  0  0  0  0  0  0  0  0  0
   10.4739    9.4813   20.2889 C   0  0  0  0  0  0  0  0  0  0  0  0
    7.5551    7.1270   23.1200 O   0  0  0  0  0  0  0  0  0  0  0  0
  1 11  4  0
  1 21  4  0
  2  4  1  0
  2  8  1  0
  2 11  1  0
  3 10  4  0
  3 14  4  0
  4  5  1  0
  4 18  2  0
  6 12  1  0
  6 17  4  0
  6 23  4  0
  7  9  1  0
  7 13  4  0
  7 19  4  0
  9 20  1  0
 10 19  4  0
 11 25  4  0
 13 14  4  0
 15 16  4  0
 15 17  4  0
 15 21  4  0
 16 24  1  0
 16 25  4  0
 20 24  1  0
 20 26  2  0
 21 23  4  0
 22 23  1  0
M  END
$$$$

 Created by Python create_sdf_string function

 26 28  0  0  0  0  0  0  0  0999 V2000
   12.4616    8.6700   19.4180 N   0  0  0  0  0  0  0  0  0  0  0  0
   11.8329   10.8148   18.6769 N   0  0  0  0  0  0  0  0  0  0  0  0
    6.1021    2.5564   21.0678 C   0  0  0  0  0  0  0  0  0  0  0  0
   10.9097   11.8051   18.4804 C   0  0  0  0  0  0  0  0  0  0  0  0
   11.2280   12.9135   17.5669 C   0  0  0  0  0  0  0  0  0  0  0  0
   12.3782    5.4231   20.7777 C   0  0  0  0  0  0  0  0  0  0  0  0
    7.7365    4.6508   21.6987 C   0  0  0  0  0  0  0  0  0  0  0  0
   13.0186   11.0102   18.0020 C   0  0  0  0  0  0  0  0  0  0  0  0
    8.6628    5.7088   21.8871 N   0  0  0  0  0  0  0  0  0  0  0  0
    5.6516    3.5258   21.9140 C   0  0  0  0  0  0  0  0  0  0  0  0
   11.5863    9.6815   19.4539 C   0  0  0  0  0  0  0  0  0  0  0  0
   12.9648    4.1543   20.9205 C   0  0  0  0  0  0  0  0  0  0  0  0
    8.2089    3.6265   20.8929 C   0  0  0  0  0  0  0  0  0  0  0  0
    7.3827    2.5724   20.5432 C   0  0  0  0  0  0  0  0  0  0  0  0
   11.1529    7.2750   20.8025 C   0  0  0  0  0  0  0  0  0  0  0  0
   10.2573    8.3215   20.9827 C   0  0  0  0  0  0  0  0  0  0  0  0
   11.1606    5.9378   21.2366 N   0  0  0  0  0  0  0  0  0  0  0  0
    9.8932   11.6736   19.0677 O   0  0  0  0  0  0  0  0  0  0  0  0
    6.4470    4.5850   22.2321 C   0  0  0  0  0  0  0  0  0  0  0  0
    8.4619    6.9895   22.2968 C   0  0  0  0  0  0  0  0  0  0  0  0
   12.2747    7.5102   20.0420 C   0  0  0  0  0  0  0  0  0  0  0  0
   14.2544    6.2142   19.4191 C   0  0  0  0  0  0  0  0  0  0  0  0
   13.0695    6.3705   20.0375 N   0  0  0  0  0  0  0  0  0  0  0  0
    9.1913    8.0876   21.8361 N   0  0  0  0  0  0  0  0  0  0  0  0
   10.4739    9.4813   20.2889 C   0  0  0  0  0  0  0  0  0  0  0  0
    7.5551    7.1270   23.1200 O   0  0  0  0  0  0  0  0  0  0  0  0
  1 11  4  0
  1 21  4  0
  2  4  1  0
  2  8  1  0
  2 11  1  0
  3 10  4  0
  3 14  4  0
  4  5  1  0
  4 18  2  0
  6 12  1  0
  6 17  4  0
  6 23  4  0
  7  9  1  0
  7 13  4  0
  7 19  4  0
  9 20  1  0
 10 19  4  0
 11 25  4  0
 13 14  4  0
 15 16  4  0
 15 17  4  0
 15 21  4  0
 16 24  1  0
 16 25  4  0
 20 24  1  0
 20 26  2  0
 21 23  4  0
 22 23  1  0
M  END
$$$$

 Created by Python create_sdf_string function

 26 28  0  0  0  0  0  0  0  0999 V2000
   12.4616    8.6700   19.4180 N   0  0  0  0  0  0  0  0  0  0  0  0
   11.8329   10.8148   18.6769 N   0  0  0  0  0  0  0  0  0  0  0  0
    6.1021    2.5564   21.0678 C   0  0  0  0  0  0  0  0  0  0  0  0
   10.9097   11.8051   18.4804 C   0  0  0  0  0  0  0  0  0  0  0  0
   11.2280   12.9135   17.5669 C   0  0  0  0  0  0  0  0  0  0  0  0
   12.3782    5.4231   20.7777 C   0  0  0  0  0  0  0  0  0  0  0  0
    7.7365    4.6508   21.6987 C   0  0  0  0  0  0  0  0  0  0  0  0
   13.0186   11.0102   18.0020 C   0  0  0  0  0  0  0  0  0  0  0  0
    8.6628    5.7088   21.8871 N   0  0  0  0  0  0  0  0  0  0  0  0
    5.6516    3.5258   21.9140 C   0  0  0  0  0  0  0  0  0  0  0  0
   11.5863    9.6815   19.4539 C   0  0  0  0  0  0  0  0  0  0  0  0
   12.9648    4.1543   20.9205 C   0  0  0  0  0  0  0  0  0  0  0  0
    8.2089    3.6265   20.8929 C   0  0  0  0  0  0  0  0  0  0  0  0
    7.3827    2.5724   20.5432 C   0  0  0  0  0  0  0  0  0  0  0  0
   11.1529    7.2750   20.8025 C   0  0  0  0  0  0  0  0  0  0  0  0
   10.2573    8.3215   20.9827 C   0  0  0  0  0  0  0  0  0  0  0  0
   11.1606    5.9378   21.2366 N   0  0  0  0  0  0  0  0  0  0  0  0
    9.8932   11.6736   19.0677 O   0  0  0  0  0  0  0  0  0  0  0  0
    6.4470    4.5850   22.2321 C   0  0  0  0  0  0  0  0  0  0  0  0
    8.4619    6.9895   22.2968 C   0  0  0  0  0  0  0  0  0  0  0  0
   12.2747    7.5102   20.0420 C   0  0  0  0  0  0  0  0  0  0  0  0
   14.2544    6.2142   19.4191 C   0  0  0  0  0  0  0  0  0  0  0  0
   13.0695    6.3705   20.0375 N   0  0  0  0  0  0  0  0  0  0  0  0
    9.1913    8.0876   21.8361 N   0  0  0  0  0  0  0  0  0  0  0  0
   10.4739    9.4813   20.2889 C   0  0  0  0  0  0  0  0  0  0  0  0
    7.5551    7.1270   23.1200 O   0  0  0  0  0  0  0  0  0  0  0  0
  1 11  4  0
  1 21  4  0
  2  4  1  0
  2  8  1  0
  2 11  1  0
  3 10  4  0
  3 14  4  0
  4  5  1  0
  4 18  2  0
  6 12  1  0
  6 17  4  0
  6 23  4  0
  7  9  1  0
  7 13  4  0
  7 19  4  0
  9 20  1  0
 10 19  4  0
 11 25  4  0
 13 14  4  0
 15 16  4  0
 15 17  4  0
 15 21  4  0
 16 24  1  0
 16 25  4  0
 20 24  1  0
 20 26  2  0
 21 23  4  0
 22 23  1  0
M  END
$$$$

 Created by Python create_sdf_string function

 26 28  0  0  0  0  0  0  0  0999 V2000
   12.4616    8.6700   19.4180 N   0  0  0  0  0  0  0  0  0  0  0  0
   11.8329   10.8148   18.6769 N   0  0  0  0  0  0  0  0  0  0  0  0
    6.1021    2.5564   21.0678 C   0  0  0  0  0  0  0  0  0  0  0  0
   10.9097   11.8051   18.4804 C   0  0  0  0  0  0  0  0  0  0  0  0
   11.2280   12.9135   17.5669 C   0  0  0  0  0  0  0  0  0  0  0  0
   12.3782    5.4231   20.7777 C   0  0  0  0  0  0  0  0  0  0  0  0
    7.7365    4.6508   21.6987 C   0  0  0  0  0  0  0  0  0  0  0  0
   13.0186   11.0102   18.0020 C   0  0  0  0  0  0  0  0  0  0  0  0
    8.6628    5.7088   21.8871 N   0  0  0  0  0  0  0  0  0  0  0  0
    5.6516    3.5258   21.9140 C   0  0  0  0  0  0  0  0  0  0  0  0
   11.5863    9.6815   19.4539 C   0  0  0  0  0  0  0  0  0  0  0  0
   12.9648    4.1543   20.9205 C   0  0  0  0  0  0  0  0  0  0  0  0
    8.2089    3.6265   20.8929 C   0  0  0  0  0  0  0  0  0  0  0  0
    7.3827    2.5724   20.5432 C   0  0  0  0  0  0  0  0  0  0  0  0
   11.1529    7.2750   20.8025 C   0  0  0  0  0  0  0  0  0  0  0  0
   10.2573    8.3215   20.9827 C   0  0  0  0  0  0  0  0  0  0  0  0
   11.1606    5.9378   21.2366 N   0  0  0  0  0  0  0  0  0  0  0  0
    9.8932   11.6736   19.0677 O   0  0  0  0  0  0  0  0  0  0  0  0
    6.4470    4.5850   22.2321 C   0  0  0  0  0  0  0  0  0  0  0  0
    8.4619    6.9895   22.2968 C   0  0  0  0  0  0  0  0  0  0  0  0
   12.2747    7.5102   20.0420 C   0  0  0  0  0  0  0  0  0  0  0  0
   14.2544    6.2142   19.4191 C   0  0  0  0  0  0  0  0  0  0  0  0
   13.0695    6.3705   20.0375 N   0  0  0  0  0  0  0  0  0  0  0  0
    9.1913    8.0876   21.8361 N   0  0  0  0  0  0  0  0  0  0  0  0
   10.4739    9.4813   20.2889 C   0  0  0  0  0  0  0  0  0  0  0  0
    7.5551    7.1270   23.1200 O   0  0  0  0  0  0  0  0  0  0  0  0
  1 11  4  0
  1 21  4  0
  2  4  1  0
  2  8  1  0
  2 11  1  0
  3 10  4  0
  3 14  4  0
  4  5  1  0
  4 18  2  0
  6 12  1  0
  6 17  4  0
  6 23  4  0
  7  9  1  0
  7 13  4  0
  7 19  4  0
  9 20  1  0
 10 19  4  0
 11 25  4  0
 13 14  4  0
 15 16  4  0
 15 17  4  0
 15 21  4  0
 16 24  1  0
 16 25  4  0
 20 24  1  0
 20 26  2  0
 21 23  4  0
 22 23  1  0
M  END
$$$$

 Created by Python create_sdf_string function

 26 28  0  0  0  0  0  0  0  0999 V2000
   12.4616    8.6700   19.4180 N   0  0  0  0  0  0  0  0  0  0  0  0
   11.8329   10.8148   18.6769 N   0  0  0  0  0  0  0  0  0  0  0  0
    6.1021    2.5564   21.0678 C   0  0  0  0  0  0  0  0  0  0  0  0
   10.9097   11.8051   18.4804 C   0  0  0  0  0  0  0  0  0  0  0  0
   11.2280   12.9135   17.5669 C   0  0  0  0  0  0  0  0  0  0  0  0
   12.3782    5.4231   20.7777 C   0  0  0  0  0  0  0  0  0  0  0  0
    7.7365    4.6508   21.6987 C   0  0  0  0  0  0  0  0  0  0  0  0
   13.0186   11.0102   18.0020 C   0  0  0  0  0  0  0  0  0  0  0  0
    8.6628    5.7088   21.8871 N   0  0  0  0  0  0  0  0  0  0  0  0
    5.6516    3.5258   21.9140 C   0  0  0  0  0  0  0  0  0  0  0  0
   11.5863    9.6815   19.4539 C   0  0  0  0  0  0  0  0  0  0  0  0
   12.9648    4.1543   20.9205 C   0  0  0  0  0  0  0  0  0  0  0  0
    8.2089    3.6265   20.8929 C   0  0  0  0  0  0  0  0  0  0  0  0
    7.3827    2.5724   20.5432 C   0  0  0  0  0  0  0  0  0  0  0  0
   11.1529    7.2750   20.8025 C   0  0  0  0  0  0  0  0  0  0  0  0
   10.2573    8.3215   20.9827 C   0  0  0  0  0  0  0  0  0  0  0  0
   11.1606    5.9378   21.2366 N   0  0  0  0  0  0  0  0  0  0  0  0
    9.8932   11.6736   19.0677 O   0  0  0  0  0  0  0  0  0  0  0  0
    6.4470    4.5850   22.2321 C   0  0  0  0  0  0  0  0  0  0  0  0
    8.4619    6.9895   22.2968 C   0  0  0  0  0  0  0  0  0  0  0  0
   12.2747    7.5102   20.0420 C   0  0  0  0  0  0  0  0  0  0  0  0
   14.2544    6.2142   19.4191 C   0  0  0  0  0  0  0  0  0  0  0  0
   13.0695    6.3705   20.0375 N   0  0  0  0  0  0  0  0  0  0  0  0
    9.1913    8.0876   21.8361 N   0  0  0  0  0  0  0  0  0  0  0  0
   10.4739    9.4813   20.2889 C   0  0  0  0  0  0  0  0  0  0  0  0
    7.5551    7.1270   23.1200 O   0  0  0  0  0  0  0  0  0  0  0  0
  1 11  4  0
  1 21  4  0
  2  4  1  0
  2  8  1  0
  2 11  1  0
  3 10  4  0
  3 14  4  0
  4  5  1  0
  4 18  2  0
  6 12  1  0
  6 17  4  0
  6 23  4  0
  7  9  1  0
  7 13  4  0
  7 19  4  0
  9 20  1  0
 10 19  4  0
 11 25  4  0
 13 14  4  0
 15 16  4  0
 15 17  4  0
 15 21  4  0
 16 24  1  0
 16 25  4  0
 20 24  1  0
 20 26  2  0
 21 23  4  0
 22 23  1  0
M  END
$$$$

 Created by Python create_sdf_string function

 26 28  0  0  0  0  0  0  0  0999 V2000
   12.4616    8.6700   19.4180 N   0  0  0  0  0  0  0  0  0  0  0  0
   11.8329   10.8148   18.6769 N   0  0  0  0  0  0  0  0  0  0  0  0
    6.1021    2.5564   21.0678 C   0  0  0  0  0  0  0  0  0  0  0  0
   10.9097   11.8051   18.4804 C   0  0  0  0  0  0  0  0  0  0  0  0
   11.2280   12.9135   17.5669 C   0  0  0  0  0  0  0  0  0  0  0  0
   12.3782    5.4231   20.7777 C   0  0  0  0  0  0  0  0  0  0  0  0
    7.7365    4.6508   21.6987 C   0  0  0  0  0  0  0  0  0  0  0  0
   13.0186   11.0102   18.0020 C   0  0  0  0  0  0  0  0  0  0  0  0
    8.6628    5.7088   21.8871 N   0  0  0  0  0  0  0  0  0  0  0  0
    5.6516    3.5258   21.9140 C   0  0  0  0  0  0  0  0  0  0  0  0
   11.5863    9.6815   19.4539 C   0  0  0  0  0  0  0  0  0  0  0  0
   12.9648    4.1543   20.9205 C   0  0  0  0  0  0  0  0  0  0  0  0
    8.2089    3.6265   20.8929 C   0  0  0  0  0  0  0  0  0  0  0  0
    7.3827    2.5724   20.5432 C   0  0  0  0  0  0  0  0  0  0  0  0
   11.1529    7.2750   20.8025 C   0  0  0  0  0  0  0  0  0  0  0  0
   10.2573    8.3215   20.9827 C   0  0  0  0  0  0  0  0  0  0  0  0
   11.1606    5.9378   21.2366 N   0  0  0  0  0  0  0  0  0  0  0  0
    9.8932   11.6736   19.0677 O   0  0  0  0  0  0  0  0  0  0  0  0
    6.4470    4.5850   22.2321 C   0  0  0  0  0  0  0  0  0  0  0  0
    8.4619    6.9895   22.2968 C   0  0  0  0  0  0  0  0  0  0  0  0
   12.2747    7.5102   20.0420 C   0  0  0  0  0  0  0  0  0  0  0  0
   14.2544    6.2142   19.4191 C   0  0  0  0  0  0  0  0  0  0  0  0
   13.0695    6.3705   20.0375 N   0  0  0  0  0  0  0  0  0  0  0  0
    9.1913    8.0876   21.8361 N   0  0  0  0  0  0  0  0  0  0  0  0
   10.4739    9.4813   20.2889 C   0  0  0  0  0  0  0  0  0  0  0  0
    7.5551    7.1270   23.1200 O   0  0  0  0  0  0  0  0  0  0  0  0
  1 11  4  0
  1 21  4  0
  2  4  1  0
  2  8  1  0
  2 11  1  0
  3 10  4  0
  3 14  4  0
  4  5  1  0
  4 18  2  0
  6 12  1  0
  6 17  4  0
  6 23  4  0
  7  9  1  0
  7 13  4  0
  7 19  4  0
  9 20  1  0
 10 19  4  0
 11 25  4  0
 13 14  4  0
 15 16  4  0
 15 17  4  0
 15 21  4  0
 16 24  1  0
 16 25  4  0
 20 24  1  0
 20 26  2  0
 21 23  4  0
 22 23  1  0
M  END
$$$$

 Created by Python create_sdf_string function

 26 28  0  0  0  0  0  0  0  0999 V2000
   12.4616    8.6700   19.4180 N   0  0  0  0  0  0  0  0  0  0  0  0
   11.8329   10.8148   18.6769 N   0  0  0  0  0  0  0  0  0  0  0  0
    6.1021    2.5564   21.0678 C   0  0  0  0  0  0  0  0  0  0  0  0
   10.9097   11.8051   18.4804 C   0  0  0  0  0  0  0  0  0  0  0  0
   11.2280   12.9135   17.5669 C   0  0  0  0  0  0  0  0  0  0  0  0
   12.3782    5.4231   20.7777 C   0  0  0  0  0  0  0  0  0  0  0  0
    7.7365    4.6508   21.6987 C   0  0  0  0  0  0  0  0  0  0  0  0
   13.0186   11.0102   18.0020 C   0  0  0  0  0  0  0  0  0  0  0  0
    8.6628    5.7088   21.8871 N   0  0  0  0  0  0  0  0  0  0  0  0
    5.6516    3.5258   21.9140 C   0  0  0  0  0  0  0  0  0  0  0  0
   11.5863    9.6815   19.4539 C   0  0  0  0  0  0  0  0  0  0  0  0
   12.9648    4.1543   20.9205 C   0  0  0  0  0  0  0  0  0  0  0  0
    8.2089    3.6265   20.8929 C   0  0  0  0  0  0  0  0  0  0  0  0
    7.3827    2.5724   20.5432 C   0  0  0  0  0  0  0  0  0  0  0  0
   11.1529    7.2750   20.8025 C   0  0  0  0  0  0  0  0  0  0  0  0
   10.2573    8.3215   20.9827 C   0  0  0  0  0  0  0  0  0  0  0  0
   11.1606    5.9378   21.2366 N   0  0  0  0  0  0  0  0  0  0  0  0
    9.8932   11.6736   19.0677 O   0  0  0  0  0  0  0  0  0  0  0  0
    6.4470    4.5850   22.2321 C   0  0  0  0  0  0  0  0  0  0  0  0
    8.4619    6.9895   22.2968 C   0  0  0  0  0  0  0  0  0  0  0  0
   12.2747    7.5102   20.0420 C   0  0  0  0  0  0  0  0  0  0  0  0
   14.2544    6.2142   19.4191 C   0  0  0  0  0  0  0  0  0  0  0  0
   13.0695    6.3705   20.0375 N   0  0  0  0  0  0  0  0  0  0  0  0
    9.1913    8.0876   21.8361 N   0  0  0  0  0  0  0  0  0  0  0  0
   10.4739    9.4813   20.2889 C   0  0  0  0  0  0  0  0  0  0  0  0
    7.5551    7.1270   23.1200 O   0  0  0  0  0  0  0  0  0  0  0  0
  1 11  4  0
  1 21  4  0
  2  4  1  0
  2  8  1  0
  2 11  1  0
  3 10  4  0
  3 14  4  0
  4  5  1  0
  4 18  2  0
  6 12  1  0
  6 17  4  0
  6 23  4  0
  7  9  1  0
  7 13  4  0
  7 19  4  0
  9 20  1  0
 10 19  4  0
 11 25  4  0
 13 14  4  0
 15 16  4  0
 15 17  4  0
 15 21  4  0
 16 24  1  0
 16 25  4  0
 20 24  1  0
 20 26  2  0
 21 23  4  0
 22 23  1  0
M  END
$$$$

 Created by Python create_sdf_string function

 26 28  0  0  0  0  0  0  0  0999 V2000
   12.4616    8.6700   19.4180 N   0  0  0  0  0  0  0  0  0  0  0  0
   11.8329   10.8148   18.6769 N   0  0  0  0  0  0  0  0  0  0  0  0
    6.1021    2.5564   21.0678 C   0  0  0  0  0  0  0  0  0  0  0  0
   10.9097   11.8051   18.4804 C   0  0  0  0  0  0  0  0  0  0  0  0
   11.2280   12.9135   17.5669 C   0  0  0  0  0  0  0  0  0  0  0  0
   12.3782    5.4231   20.7777 C   0  0  0  0  0  0  0  0  0  0  0  0
    7.7365    4.6508   21.6987 C   0  0  0  0  0  0  0  0  0  0  0  0
   13.0186   11.0102   18.0020 C   0  0  0  0  0  0  0  0  0  0  0  0
    8.6628    5.7088   21.8871 N   0  0  0  0  0  0  0  0  0  0  0  0
    5.6516    3.5258   21.9140 C   0  0  0  0  0  0  0  0  0  0  0  0
   11.5863    9.6815   19.4539 C   0  0  0  0  0  0  0  0  0  0  0  0
   12.9648    4.1543   20.9205 C   0  0  0  0  0  0  0  0  0  0  0  0
    8.2089    3.6265   20.8929 C   0  0  0  0  0  0  0  0  0  0  0  0
    7.3827    2.5724   20.5432 C   0  0  0  0  0  0  0  0  0  0  0  0
   11.1529    7.2750   20.8025 C   0  0  0  0  0  0  0  0  0  0  0  0
   10.2573    8.3215   20.9827 C   0  0  0  0  0  0  0  0  0  0  0  0
   11.1606    5.9378   21.2366 N   0  0  0  0  0  0  0  0  0  0  0  0
    9.8932   11.6736   19.0677 O   0  0  0  0  0  0  0  0  0  0  0  0
    6.4470    4.5850   22.2321 C   0  0  0  0  0  0  0  0  0  0  0  0
    8.4619    6.9895   22.2968 C   0  0  0  0  0  0  0  0  0  0  0  0
   12.2747    7.5102   20.0420 C   0  0  0  0  0  0  0  0  0  0  0  0
   14.2544    6.2142   19.4191 C   0  0  0  0  0  0  0  0  0  0  0  0
   13.0695    6.3705   20.0375 N   0  0  0  0  0  0  0  0  0  0  0  0
    9.1913    8.0876   21.8361 N   0  0  0  0  0  0  0  0  0  0  0  0
   10.4739    9.4813   20.2889 C   0  0  0  0  0  0  0  0  0  0  0  0
    7.5551    7.1270   23.1200 O   0  0  0  0  0  0  0  0  0  0  0  0
  1 11  4  0
  1 21  4  0
  2  4  1  0
  2  8  1  0
  2 11  1  0
  3 10  4  0
  3 14  4  0
  4  5  1  0
  4 18  2  0
  6 12  1  0
  6 17  4  0
  6 23  4  0
  7  9  1  0
  7 13  4  0
  7 19  4  0
  9 20  1  0
 10 19  4  0
 11 25  4  0
 13 14  4  0
 15 16  4  0
 15 17  4  0
 15 21  4  0
 16 24  1  0
 16 25  4  0
 20 24  1  0
 20 26  2  0
 21 23  4  0
 22 23  1  0
M  END
$$$$

 Created by Python create_sdf_string function

 26 28  0  0  0  0  0  0  0  0999 V2000
   12.4616    8.6700   19.4180 N   0  0  0  0  0  0  0  0  0  0  0  0
   11.8329   10.8148   18.6769 N   0  0  0  0  0  0  0  0  0  0  0  0
    6.1021    2.5564   21.0678 C   0  0  0  0  0  0  0  0  0  0  0  0
   10.9097   11.8051   18.4804 C   0  0  0  0  0  0  0  0  0  0  0  0
   11.2280   12.9135   17.5669 C   0  0  0  0  0  0  0  0  0  0  0  0
   12.3782    5.4231   20.7777 C   0  0  0  0  0  0  0  0  0  0  0  0
    7.7365    4.6508   21.6987 C   0  0  0  0  0  0  0  0  0  0  0  0
   13.0186   11.0102   18.0020 C   0  0  0  0  0  0  0  0  0  0  0  0
    8.6628    5.7088   21.8871 N   0  0  0  0  0  0  0  0  0  0  0  0
    5.6516    3.5258   21.9140 C   0  0  0  0  0  0  0  0  0  0  0  0
   11.5863    9.6815   19.4539 C   0  0  0  0  0  0  0  0  0  0  0  0
   12.9648    4.1543   20.9205 C   0  0  0  0  0  0  0  0  0  0  0  0
    8.2089    3.6265   20.8929 C   0  0  0  0  0  0  0  0  0  0  0  0
    7.3827    2.5724   20.5432 C   0  0  0  0  0  0  0  0  0  0  0  0
   11.1529    7.2750   20.8025 C   0  0  0  0  0  0  0  0  0  0  0  0
   10.2573    8.3215   20.9827 C   0  0  0  0  0  0  0  0  0  0  0  0
   11.1606    5.9378   21.2366 N   0  0  0  0  0  0  0  0  0  0  0  0
    9.8932   11.6736   19.0677 O   0  0  0  0  0  0  0  0  0  0  0  0
    6.4470    4.5850   22.2321 C   0  0  0  0  0  0  0  0  0  0  0  0
    8.4619    6.9895   22.2968 C   0  0  0  0  0  0  0  0  0  0  0  0
   12.2747    7.5102   20.0420 C   0  0  0  0  0  0  0  0  0  0  0  0
   14.2544    6.2142   19.4191 C   0  0  0  0  0  0  0  0  0  0  0  0
   13.0695    6.3705   20.0375 N   0  0  0  0  0  0  0  0  0  0  0  0
    9.1913    8.0876   21.8361 N   0  0  0  0  0  0  0  0  0  0  0  0
   10.4739    9.4813   20.2889 C   0  0  0  0  0  0  0  0  0  0  0  0
    7.5551    7.1270   23.1200 O   0  0  0  0  0  0  0  0  0  0  0  0
  1 11  4  0
  1 21  4  0
  2  4  1  0
  2  8  1  0
  2 11  1  0
  3 10  4  0
  3 14  4  0
  4  5  1  0
  4 18  2  0
  6 12  1  0
  6 17  4  0
  6 23  4  0
  7  9  1  0
  7 13  4  0
  7 19  4  0
  9 20  1  0
 10 19  4  0
 11 25  4  0
 13 14  4  0
 15 16  4  0
 15 17  4  0
 15 21  4  0
 16 24  1  0
 16 25  4  0
 20 24  1  0
 20 26  2  0
 21 23  4  0
 22 23  1  0
M  END
$$$$

 Created by Python create_sdf_string function

 26 28  0  0  0  0  0  0  0  0999 V2000
   12.4616    8.6700   19.4180 N   0  0  0  0  0  0  0  0  0  0  0  0
   11.8329   10.8148   18.6769 N   0  0  0  0  0  0  0  0  0  0  0  0
    6.1021    2.5564   21.0678 C   0  0  0  0  0  0  0  0  0  0  0  0
   10.9097   11.8051   18.4804 C   0  0  0  0  0  0  0  0  0  0  0  0
   11.2280   12.9135   17.5669 C   0  0  0  0  0  0  0  0  0  0  0  0
   12.3782    5.4231   20.7777 C   0  0  0  0  0  0  0  0  0  0  0  0
    7.7365    4.6508   21.6987 C   0  0  0  0  0  0  0  0  0  0  0  0
   13.0186   11.0102   18.0020 C   0  0  0  0  0  0  0  0  0  0  0  0
    8.6628    5.7088   21.8871 N   0  0  0  0  0  0  0  0  0  0  0  0
    5.6516    3.5258   21.9140 C   0  0  0  0  0  0  0  0  0  0  0  0
   11.5863    9.6815   19.4539 C   0  0  0  0  0  0  0  0  0  0  0  0
   12.9648    4.1543   20.9205 C   0  0  0  0  0  0  0  0  0  0  0  0
    8.2089    3.6265   20.8929 C   0  0  0  0  0  0  0  0  0  0  0  0
    7.3827    2.5724   20.5432 C   0  0  0  0  0  0  0  0  0  0  0  0
   11.1529    7.2750   20.8025 C   0  0  0  0  0  0  0  0  0  0  0  0
   10.2573    8.3215   20.9827 C   0  0  0  0  0  0  0  0  0  0  0  0
   11.1606    5.9378   21.2366 N   0  0  0  0  0  0  0  0  0  0  0  0
    9.8932   11.6736   19.0677 O   0  0  0  0  0  0  0  0  0  0  0  0
    6.4470    4.5850   22.2321 C   0  0  0  0  0  0  0  0  0  0  0  0
    8.4619    6.9895   22.2968 C   0  0  0  0  0  0  0  0  0  0  0  0
   12.2747    7.5102   20.0420 C   0  0  0  0  0  0  0  0  0  0  0  0
   14.2544    6.2142   19.4191 C   0  0  0  0  0  0  0  0  0  0  0  0
   13.0695    6.3705   20.0375 N   0  0  0  0  0  0  0  0  0  0  0  0
    9.1913    8.0876   21.8361 N   0  0  0  0  0  0  0  0  0  0  0  0
   10.4739    9.4813   20.2889 C   0  0  0  0  0  0  0  0  0  0  0  0
    7.5551    7.1270   23.1200 O   0  0  0  0  0  0  0  0  0  0  0  0
  1 11  4  0
  1 21  4  0
  2  4  1  0
  2  8  1  0
  2 11  1  0
  3 10  4  0
  3 14  4  0
  4  5  1  0
  4 18  2  0
  6 12  1  0
  6 17  4  0
  6 23  4  0
  7  9  1  0
  7 13  4  0
  7 19  4  0
  9 20  1  0
 10 19  4  0
 11 25  4  0
 13 14  4  0
 15 16  4  0
 15 17  4  0
 15 21  4  0
 16 24  1  0
 16 25  4  0
 20 24  1  0
 20 26  2  0
 21 23  4  0
 22 23  1  0
M  END
$$$$

 Created by Python create_sdf_string function

 26 28  0  0  0  0  0  0  0  0999 V2000
   12.4616    8.6700   19.4180 N   0  0  0  0  0  0  0  0  0  0  0  0
   11.8329   10.8148   18.6769 N   0  0  0  0  0  0  0  0  0  0  0  0
    6.1021    2.5564   21.0678 C   0  0  0  0  0  0  0  0  0  0  0  0
   10.9097   11.8051   18.4804 C   0  0  0  0  0  0  0  0  0  0  0  0
   11.2280   12.9135   17.5669 C   0  0  0  0  0  0  0  0  0  0  0  0
   12.3782    5.4231   20.7777 C   0  0  0  0  0  0  0  0  0  0  0  0
    7.7365    4.6508   21.6987 C   0  0  0  0  0  0  0  0  0  0  0  0
   13.0186   11.0102   18.0020 C   0  0  0  0  0  0  0  0  0  0  0  0
    8.6628    5.7088   21.8871 N   0  0  0  0  0  0  0  0  0  0  0  0
    5.6516    3.5258   21.9140 C   0  0  0  0  0  0  0  0  0  0  0  0
   11.5863    9.6815   19.4539 C   0  0  0  0  0  0  0  0  0  0  0  0
   12.9648    4.1543   20.9205 C   0  0  0  0  0  0  0  0  0  0  0  0
    8.2089    3.6265   20.8929 C   0  0  0  0  0  0  0  0  0  0  0  0
    7.3827    2.5724   20.5432 C   0  0  0  0  0  0  0  0  0  0  0  0
   11.1529    7.2750   20.8025 C   0  0  0  0  0  0  0  0  0  0  0  0
   10.2573    8.3215   20.9827 C   0  0  0  0  0  0  0  0  0  0  0  0
   11.1606    5.9378   21.2366 N   0  0  0  0  0  0  0  0  0  0  0  0
    9.8932   11.6736   19.0677 O   0  0  0  0  0  0  0  0  0  0  0  0
    6.4470    4.5850   22.2321 C   0  0  0  0  0  0  0  0  0  0  0  0
    8.4619    6.9895   22.2968 C   0  0  0  0  0  0  0  0  0  0  0  0
   12.2747    7.5102   20.0420 C   0  0  0  0  0  0  0  0  0  0  0  0
   14.2544    6.2142   19.4191 C   0  0  0  0  0  0  0  0  0  0  0  0
   13.0695    6.3705   20.0375 N   0  0  0  0  0  0  0  0  0  0  0  0
    9.1913    8.0876   21.8361 N   0  0  0  0  0  0  0  0  0  0  0  0
   10.4739    9.4813   20.2889 C   0  0  0  0  0  0  0  0  0  0  0  0
    7.5551    7.1270   23.1200 O   0  0  0  0  0  0  0  0  0  0  0  0
  1 11  4  0
  1 21  4  0
  2  4  1  0
  2  8  1  0
  2 11  1  0
  3 10  4  0
  3 14  4  0
  4  5  1  0
  4 18  2  0
  6 12  1  0
  6 17  4  0
  6 23  4  0
  7  9  1  0
  7 13  4  0
  7 19  4  0
  9 20  1  0
 10 19  4  0
 11 25  4  0
 13 14  4  0
 15 16  4  0
 15 17  4  0
 15 21  4  0
 16 24  1  0
 16 25  4  0
 20 24  1  0
 20 26  2  0
 21 23  4  0
 22 23  1  0
M  END
$$$$

 Created by Python create_sdf_string function

 26 28  0  0  0  0  0  0  0  0999 V2000
   12.4616    8.6700   19.4180 N   0  0  0  0  0  0  0  0  0  0  0  0
   11.8329   10.8148   18.6769 N   0  0  0  0  0  0  0  0  0  0  0  0
    6.1021    2.5564   21.0678 C   0  0  0  0  0  0  0  0  0  0  0  0
   10.9097   11.8051   18.4804 C   0  0  0  0  0  0  0  0  0  0  0  0
   11.2280   12.9135   17.5669 C   0  0  0  0  0  0  0  0  0  0  0  0
   12.3782    5.4231   20.7777 C   0  0  0  0  0  0  0  0  0  0  0  0
    7.7365    4.6508   21.6987 C   0  0  0  0  0  0  0  0  0  0  0  0
   13.0186   11.0102   18.0020 C   0  0  0  0  0  0  0  0  0  0  0  0
    8.6628    5.7088   21.8871 N   0  0  0  0  0  0  0  0  0  0  0  0
    5.6516    3.5258   21.9140 C   0  0  0  0  0  0  0  0  0  0  0  0
   11.5863    9.6815   19.4539 C   0  0  0  0  0  0  0  0  0  0  0  0
   12.9648    4.1543   20.9205 C   0  0  0  0  0  0  0  0  0  0  0  0
    8.2089    3.6265   20.8929 C   0  0  0  0  0  0  0  0  0  0  0  0
    7.3827    2.5724   20.5432 C   0  0  0  0  0  0  0  0  0  0  0  0
   11.1529    7.2750   20.8025 C   0  0  0  0  0  0  0  0  0  0  0  0
   10.2573    8.3215   20.9827 C   0  0  0  0  0  0  0  0  0  0  0  0
   11.1606    5.9378   21.2366 N   0  0  0  0  0  0  0  0  0  0  0  0
    9.8932   11.6736   19.0677 O   0  0  0  0  0  0  0  0  0  0  0  0
    6.4470    4.5850   22.2321 C   0  0  0  0  0  0  0  0  0  0  0  0
    8.4619    6.9895   22.2968 C   0  0  0  0  0  0  0  0  0  0  0  0
   12.2747    7.5102   20.0420 C   0  0  0  0  0  0  0  0  0  0  0  0
   14.2544    6.2142   19.4191 C   0  0  0  0  0  0  0  0  0  0  0  0
   13.0695    6.3705   20.0375 N   0  0  0  0  0  0  0  0  0  0  0  0
    9.1913    8.0876   21.8361 N   0  0  0  0  0  0  0  0  0  0  0  0
   10.4739    9.4813   20.2889 C   0  0  0  0  0  0  0  0  0  0  0  0
    7.5551    7.1270   23.1200 O   0  0  0  0  0  0  0  0  0  0  0  0
  1 11  4  0
  1 21  4  0
  2  4  1  0
  2  8  1  0
  2 11  1  0
  3 10  4  0
  3 14  4  0
  4  5  1  0
  4 18  2  0
  6 12  1  0
  6 17  4  0
  6 23  4  0
  7  9  1  0
  7 13  4  0
  7 19  4  0
  9 20  1  0
 10 19  4  0
 11 25  4  0
 13 14  4  0
 15 16  4  0
 15 17  4  0
 15 21  4  0
 16 24  1  0
 16 25  4  0
 20 24  1  0
 20 26  2  0
 21 23  4  0
 22 23  1  0
M  END
$$$$

 Created by Python create_sdf_string function

 26 28  0  0  0  0  0  0  0  0999 V2000
   12.4616    8.6700   19.4180 N   0  0  0  0  0  0  0  0  0  0  0  0
   11.8329   10.8148   18.6769 N   0  0  0  0  0  0  0  0  0  0  0  0
    6.1021    2.5564   21.0678 C   0  0  0  0  0  0  0  0  0  0  0  0
   10.9097   11.8051   18.4804 C   0  0  0  0  0  0  0  0  0  0  0  0
   11.2280   12.9135   17.5669 C   0  0  0  0  0  0  0  0  0  0  0  0
   12.3782    5.4231   20.7777 C   0  0  0  0  0  0  0  0  0  0  0  0
    7.7365    4.6508   21.6987 C   0  0  0  0  0  0  0  0  0  0  0  0
   13.0186   11.0102   18.0020 C   0  0  0  0  0  0  0  0  0  0  0  0
    8.6628    5.7088   21.8871 N   0  0  0  0  0  0  0  0  0  0  0  0
    5.6516    3.5258   21.9140 C   0  0  0  0  0  0  0  0  0  0  0  0
   11.5863    9.6815   19.4539 C   0  0  0  0  0  0  0  0  0  0  0  0
   12.9648    4.1543   20.9205 C   0  0  0  0  0  0  0  0  0  0  0  0
    8.2089    3.6265   20.8929 C   0  0  0  0  0  0  0  0  0  0  0  0
    7.3827    2.5724   20.5432 C   0  0  0  0  0  0  0  0  0  0  0  0
   11.1529    7.2750   20.8025 C   0  0  0  0  0  0  0  0  0  0  0  0
   10.2573    8.3215   20.9827 C   0  0  0  0  0  0  0  0  0  0  0  0
   11.1606    5.9378   21.2366 N   0  0  0  0  0  0  0  0  0  0  0  0
    9.8932   11.6736   19.0677 O   0  0  0  0  0  0  0  0  0  0  0  0
    6.4470    4.5850   22.2321 C   0  0  0  0  0  0  0  0  0  0  0  0
    8.4619    6.9895   22.2968 C   0  0  0  0  0  0  0  0  0  0  0  0
   12.2747    7.5102   20.0420 C   0  0  0  0  0  0  0  0  0  0  0  0
   14.2544    6.2142   19.4191 C   0  0  0  0  0  0  0  0  0  0  0  0
   13.0695    6.3705   20.0375 N   0  0  0  0  0  0  0  0  0  0  0  0
    9.1913    8.0876   21.8361 N   0  0  0  0  0  0  0  0  0  0  0  0
   10.4739    9.4813   20.2889 C   0  0  0  0  0  0  0  0  0  0  0  0
    7.5551    7.1270   23.1200 O   0  0  0  0  0  0  0  0  0  0  0  0
  1 11  4  0
  1 21  4  0
  2  4  1  0
  2  8  1  0
  2 11  1  0
  3 10  4  0
  3 14  4  0
  4  5  1  0
  4 18  2  0
  6 12  1  0
  6 17  4  0
  6 23  4  0
  7  9  1  0
  7 13  4  0
  7 19  4  0
  9 20  1  0
 10 19  4  0
 11 25  4  0
 13 14  4  0
 15 16  4  0
 15 17  4  0
 15 21  4  0
 16 24  1  0
 16 25  4  0
 20 24  1  0
 20 26  2  0
 21 23  4  0
 22 23  1  0
M  END
$$$$

 Created by Python create_sdf_string function

 26 28  0  0  0  0  0  0  0  0999 V2000
   12.4616    8.6700   19.4180 N   0  0  0  0  0  0  0  0  0  0  0  0
   11.8329   10.8148   18.6769 N   0  0  0  0  0  0  0  0  0  0  0  0
    6.1021    2.5564   21.0678 C   0  0  0  0  0  0  0  0  0  0  0  0
   10.9097   11.8051   18.4804 C   0  0  0  0  0  0  0  0  0  0  0  0
   11.2280   12.9135   17.5669 C   0  0  0  0  0  0  0  0  0  0  0  0
   12.3782    5.4231   20.7777 C   0  0  0  0  0  0  0  0  0  0  0  0
    7.7365    4.6508   21.6987 C   0  0  0  0  0  0  0  0  0  0  0  0
   13.0186   11.0102   18.0020 C   0  0  0  0  0  0  0  0  0  0  0  0
    8.6628    5.7088   21.8871 N   0  0  0  0  0  0  0  0  0  0  0  0
    5.6516    3.5258   21.9140 C   0  0  0  0  0  0  0  0  0  0  0  0
   11.5863    9.6815   19.4539 C   0  0  0  0  0  0  0  0  0  0  0  0
   12.9648    4.1543   20.9205 C   0  0  0  0  0  0  0  0  0  0  0  0
    8.2089    3.6265   20.8929 C   0  0  0  0  0  0  0  0  0  0  0  0
    7.3827    2.5724   20.5432 C   0  0  0  0  0  0  0  0  0  0  0  0
   11.1529    7.2750   20.8025 C   0  0  0  0  0  0  0  0  0  0  0  0
   10.2573    8.3215   20.9827 C   0  0  0  0  0  0  0  0  0  0  0  0
   11.1606    5.9378   21.2366 N   0  0  0  0  0  0  0  0  0  0  0  0
    9.8932   11.6736   19.0677 O   0  0  0  0  0  0  0  0  0  0  0  0
    6.4470    4.5850   22.2321 C   0  0  0  0  0  0  0  0  0  0  0  0
    8.4619    6.9895   22.2968 C   0  0  0  0  0  0  0  0  0  0  0  0
   12.2747    7.5102   20.0420 C   0  0  0  0  0  0  0  0  0  0  0  0
   14.2544    6.2142   19.4191 C   0  0  0  0  0  0  0  0  0  0  0  0
   13.0695    6.3705   20.0375 N   0  0  0  0  0  0  0  0  0  0  0  0
    9.1913    8.0876   21.8361 N   0  0  0  0  0  0  0  0  0  0  0  0
   10.4739    9.4813   20.2889 C   0  0  0  0  0  0  0  0  0  0  0  0
    7.5551    7.1270   23.1200 O   0  0  0  0  0  0  0  0  0  0  0  0
  1 11  4  0
  1 21  4  0
  2  4  1  0
  2  8  1  0
  2 11  1  0
  3 10  4  0
  3 14  4  0
  4  5  1  0
  4 18  2  0
  6 12  1  0
  6 17  4  0
  6 23  4  0
  7  9  1  0
  7 13  4  0
  7 19  4  0
  9 20  1  0
 10 19  4  0
 11 25  4  0
 13 14  4  0
 15 16  4  0
 15 17  4  0
 15 21  4  0
 16 24  1  0
 16 25  4  0
 20 24  1  0
 20 26  2  0
 21 23  4  0
 22 23  1  0
M  END
$$$$

 Created by Python create_sdf_string function

 26 28  0  0  0  0  0  0  0  0999 V2000
   12.4616    8.6700   19.4180 N   0  0  0  0  0  0  0  0  0  0  0  0
   11.8329   10.8148   18.6769 N   0  0  0  0  0  0  0  0  0  0  0  0
    6.1021    2.5564   21.0678 C   0  0  0  0  0  0  0  0  0  0  0  0
   10.9097   11.8051   18.4804 C   0  0  0  0  0  0  0  0  0  0  0  0
   11.2280   12.9135   17.5669 C   0  0  0  0  0  0  0  0  0  0  0  0
   12.3782    5.4231   20.7777 C   0  0  0  0  0  0  0  0  0  0  0  0
    7.7365    4.6508   21.6987 C   0  0  0  0  0  0  0  0  0  0  0  0
   13.0186   11.0102   18.0020 C   0  0  0  0  0  0  0  0  0  0  0  0
    8.6628    5.7088   21.8871 N   0  0  0  0  0  0  0  0  0  0  0  0
    5.6516    3.5258   21.9140 C   0  0  0  0  0  0  0  0  0  0  0  0
   11.5863    9.6815   19.4539 C   0  0  0  0  0  0  0  0  0  0  0  0
   12.9648    4.1543   20.9205 C   0  0  0  0  0  0  0  0  0  0  0  0
    8.2089    3.6265   20.8929 C   0  0  0  0  0  0  0  0  0  0  0  0
    7.3827    2.5724   20.5432 C   0  0  0  0  0  0  0  0  0  0  0  0
   11.1529    7.2750   20.8025 C   0  0  0  0  0  0  0  0  0  0  0  0
   10.2573    8.3215   20.9827 C   0  0  0  0  0  0  0  0  0  0  0  0
   11.1606    5.9378   21.2366 N   0  0  0  0  0  0  0  0  0  0  0  0
    9.8932   11.6736   19.0677 O   0  0  0  0  0  0  0  0  0  0  0  0
    6.4470    4.5850   22.2321 C   0  0  0  0  0  0  0  0  0  0  0  0
    8.4619    6.9895   22.2968 C   0  0  0  0  0  0  0  0  0  0  0  0
   12.2747    7.5102   20.0420 C   0  0  0  0  0  0  0  0  0  0  0  0
   14.2544    6.2142   19.4191 C   0  0  0  0  0  0  0  0  0  0  0  0
   13.0695    6.3705   20.0375 N   0  0  0  0  0  0  0  0  0  0  0  0
    9.1913    8.0876   21.8361 N   0  0  0  0  0  0  0  0  0  0  0  0
   10.4739    9.4813   20.2889 C   0  0  0  0  0  0  0  0  0  0  0  0
    7.5551    7.1270   23.1200 O   0  0  0  0  0  0  0  0  0  0  0  0
  1 11  4  0
  1 21  4  0
  2  4  1  0
  2  8  1  0
  2 11  1  0
  3 10  4  0
  3 14  4  0
  4  5  1  0
  4 18  2  0
  6 12  1  0
  6 17  4  0
  6 23  4  0
  7  9  1  0
  7 13  4  0
  7 19  4  0
  9 20  1  0
 10 19  4  0
 11 25  4  0
 13 14  4  0
 15 16  4  0
 15 17  4  0
 15 21  4  0
 16 24  1  0
 16 25  4  0
 20 24  1  0
 20 26  2  0
 21 23  4  0
 22 23  1  0
M  END
$$$$

 Created by Python create_sdf_string function

 26 28  0  0  0  0  0  0  0  0999 V2000
   12.4616    8.6700   19.4180 N   0  0  0  0  0  0  0  0  0  0  0  0
   11.8329   10.8148   18.6769 N   0  0  0  0  0  0  0  0  0  0  0  0
    6.1021    2.5564   21.0678 C   0  0  0  0  0  0  0  0  0  0  0  0
   10.9097   11.8051   18.4804 C   0  0  0  0  0  0  0  0  0  0  0  0
   11.2280   12.9135   17.5669 C   0  0  0  0  0  0  0  0  0  0  0  0
   12.3782    5.4231   20.7777 C   0  0  0  0  0  0  0  0  0  0  0  0
    7.7365    4.6508   21.6987 C   0  0  0  0  0  0  0  0  0  0  0  0
   13.0186   11.0102   18.0020 C   0  0  0  0  0  0  0  0  0  0  0  0
    8.6628    5.7088   21.8871 N   0  0  0  0  0  0  0  0  0  0  0  0
    5.6516    3.5258   21.9140 C   0  0  0  0  0  0  0  0  0  0  0  0
   11.5863    9.6815   19.4539 C   0  0  0  0  0  0  0  0  0  0  0  0
   12.9648    4.1543   20.9205 C   0  0  0  0  0  0  0  0  0  0  0  0
    8.2089    3.6265   20.8929 C   0  0  0  0  0  0  0  0  0  0  0  0
    7.3827    2.5724   20.5432 C   0  0  0  0  0  0  0  0  0  0  0  0
   11.1529    7.2750   20.8025 C   0  0  0  0  0  0  0  0  0  0  0  0
   10.2573    8.3215   20.9827 C   0  0  0  0  0  0  0  0  0  0  0  0
   11.1606    5.9378   21.2366 N   0  0  0  0  0  0  0  0  0  0  0  0
    9.8932   11.6736   19.0677 O   0  0  0  0  0  0  0  0  0  0  0  0
    6.4470    4.5850   22.2321 C   0  0  0  0  0  0  0  0  0  0  0  0
    8.4619    6.9895   22.2968 C   0  0  0  0  0  0  0  0  0  0  0  0
   12.2747    7.5102   20.0420 C   0  0  0  0  0  0  0  0  0  0  0  0
   14.2544    6.2142   19.4191 C   0  0  0  0  0  0  0  0  0  0  0  0
   13.0695    6.3705   20.0375 N   0  0  0  0  0  0  0  0  0  0  0  0
    9.1913    8.0876   21.8361 N   0  0  0  0  0  0  0  0  0  0  0  0
   10.4739    9.4813   20.2889 C   0  0  0  0  0  0  0  0  0  0  0  0
    7.5551    7.1270   23.1200 O   0  0  0  0  0  0  0  0  0  0  0  0
  1 11  4  0
  1 21  4  0
  2  4  1  0
  2  8  1  0
  2 11  1  0
  3 10  4  0
  3 14  4  0
  4  5  1  0
  4 18  2  0
  6 12  1  0
  6 17  4  0
  6 23  4  0
  7  9  1  0
  7 13  4  0
  7 19  4  0
  9 20  1  0
 10 19  4  0
 11 25  4  0
 13 14  4  0
 15 16  4  0
 15 17  4  0
 15 21  4  0
 16 24  1  0
 16 25  4  0
 20 24  1  0
 20 26  2  0
 21 23  4  0
 22 23  1  0
M  END
$$$$

 Created by Python create_sdf_string function

 26 28  0  0  0  0  0  0  0  0999 V2000
   12.4616    8.6700   19.4180 N   0  0  0  0  0  0  0  0  0  0  0  0
   11.8329   10.8148   18.6769 N   0  0  0  0  0  0  0  0  0  0  0  0
    6.1021    2.5564   21.0678 C   0  0  0  0  0  0  0  0  0  0  0  0
   10.9097   11.8051   18.4804 C   0  0  0  0  0  0  0  0  0  0  0  0
   11.2280   12.9135   17.5669 C   0  0  0  0  0  0  0  0  0  0  0  0
   12.3782    5.4231   20.7777 C   0  0  0  0  0  0  0  0  0  0  0  0
    7.7365    4.6508   21.6987 C   0  0  0  0  0  0  0  0  0  0  0  0
   13.0186   11.0102   18.0020 C   0  0  0  0  0  0  0  0  0  0  0  0
    8.6628    5.7088   21.8871 N   0  0  0  0  0  0  0  0  0  0  0  0
    5.6516    3.5258   21.9140 C   0  0  0  0  0  0  0  0  0  0  0  0
   11.5863    9.6815   19.4539 C   0  0  0  0  0  0  0  0  0  0  0  0
   12.9648    4.1543   20.9205 C   0  0  0  0  0  0  0  0  0  0  0  0
    8.2089    3.6265   20.8929 C   0  0  0  0  0  0  0  0  0  0  0  0
    7.3827    2.5724   20.5432 C   0  0  0  0  0  0  0  0  0  0  0  0
   11.1529    7.2750   20.8025 C   0  0  0  0  0  0  0  0  0  0  0  0
   10.2573    8.3215   20.9827 C   0  0  0  0  0  0  0  0  0  0  0  0
   11.1606    5.9378   21.2366 N   0  0  0  0  0  0  0  0  0  0  0  0
    9.8932   11.6736   19.0677 O   0  0  0  0  0  0  0  0  0  0  0  0
    6.4470    4.5850   22.2321 C   0  0  0  0  0  0  0  0  0  0  0  0
    8.4619    6.9895   22.2968 C   0  0  0  0  0  0  0  0  0  0  0  0
   12.2747    7.5102   20.0420 C   0  0  0  0  0  0  0  0  0  0  0  0
   14.2544    6.2142   19.4191 C   0  0  0  0  0  0  0  0  0  0  0  0
   13.0695    6.3705   20.0375 N   0  0  0  0  0  0  0  0  0  0  0  0
    9.1913    8.0876   21.8361 N   0  0  0  0  0  0  0  0  0  0  0  0
   10.4739    9.4813   20.2889 C   0  0  0  0  0  0  0  0  0  0  0  0
    7.5551    7.1270   23.1200 O   0  0  0  0  0  0  0  0  0  0  0  0
  1 11  4  0
  1 21  4  0
  2  4  1  0
  2  8  1  0
  2 11  1  0
  3 10  4  0
  3 14  4  0
  4  5  1  0
  4 18  2  0
  6 12  1  0
  6 17  4  0
  6 23  4  0
  7  9  1  0
  7 13  4  0
  7 19  4  0
  9 20  1  0
 10 19  4  0
 11 25  4  0
 13 14  4  0
 15 16  4  0
 15 17  4  0
 15 21  4  0
 16 24  1  0
 16 25  4  0
 20 24  1  0
 20 26  2  0
 21 23  4  0
 22 23  1  0
M  END
$$$$

 Created by Python create_sdf_string function

 26 28  0  0  0  0  0  0  0  0999 V2000
   12.4616    8.6700   19.4180 N   0  0  0  0  0  0  0  0  0  0  0  0
   11.8329   10.8148   18.6769 N   0  0  0  0  0  0  0  0  0  0  0  0
    6.1021    2.5564   21.0678 C   0  0  0  0  0  0  0  0  0  0  0  0
   10.9097   11.8051   18.4804 C   0  0  0  0  0  0  0  0  0  0  0  0
   11.2280   12.9135   17.5669 C   0  0  0  0  0  0  0  0  0  0  0  0
   12.3782    5.4231   20.7777 C   0  0  0  0  0  0  0  0  0  0  0  0
    7.7365    4.6508   21.6987 C   0  0  0  0  0  0  0  0  0  0  0  0
   13.0186   11.0102   18.0020 C   0  0  0  0  0  0  0  0  0  0  0  0
    8.6628    5.7088   21.8871 N   0  0  0  0  0  0  0  0  0  0  0  0
    5.6516    3.5258   21.9140 C   0  0  0  0  0  0  0  0  0  0  0  0
   11.5863    9.6815   19.4539 C   0  0  0  0  0  0  0  0  0  0  0  0
   12.9648    4.1543   20.9205 C   0  0  0  0  0  0  0  0  0  0  0  0
    8.2089    3.6265   20.8929 C   0  0  0  0  0  0  0  0  0  0  0  0
    7.3827    2.5724   20.5432 C   0  0  0  0  0  0  0  0  0  0  0  0
   11.1529    7.2750   20.8025 C   0  0  0  0  0  0  0  0  0  0  0  0
   10.2573    8.3215   20.9827 C   0  0  0  0  0  0  0  0  0  0  0  0
   11.1606    5.9378   21.2366 N   0  0  0  0  0  0  0  0  0  0  0  0
    9.8932   11.6736   19.0677 O   0  0  0  0  0  0  0  0  0  0  0  0
    6.4470    4.5850   22.2321 C   0  0  0  0  0  0  0  0  0  0  0  0
    8.4619    6.9895   22.2968 C   0  0  0  0  0  0  0  0  0  0  0  0
   12.2747    7.5102   20.0420 C   0  0  0  0  0  0  0  0  0  0  0  0
   14.2544    6.2142   19.4191 C   0  0  0  0  0  0  0  0  0  0  0  0
   13.0695    6.3705   20.0375 N   0  0  0  0  0  0  0  0  0  0  0  0
    9.1913    8.0876   21.8361 N   0  0  0  0  0  0  0  0  0  0  0  0
   10.4739    9.4813   20.2889 C   0  0  0  0  0  0  0  0  0  0  0  0
    7.5551    7.1270   23.1200 O   0  0  0  0  0  0  0  0  0  0  0  0
  1 11  4  0
  1 21  4  0
  2  4  1  0
  2  8  1  0
  2 11  1  0
  3 10  4  0
  3 14  4  0
  4  5  1  0
  4 18  2  0
  6 12  1  0
  6 17  4  0
  6 23  4  0
  7  9  1  0
  7 13  4  0
  7 19  4  0
  9 20  1  0
 10 19  4  0
 11 25  4  0
 13 14  4  0
 15 16  4  0
 15 17  4  0
 15 21  4  0
 16 24  1  0
 16 25  4  0
 20 24  1  0
 20 26  2  0
 21 23  4  0
 22 23  1  0
M  END
$$$$

 Created by Python create_sdf_string function

 26 28  0  0  0  0  0  0  0  0999 V2000
   12.4616    8.6700   19.4180 N   0  0  0  0  0  0  0  0  0  0  0  0
   11.8329   10.8148   18.6769 N   0  0  0  0  0  0  0  0  0  0  0  0
    6.1021    2.5564   21.0678 C   0  0  0  0  0  0  0  0  0  0  0  0
   10.9097   11.8051   18.4804 C   0  0  0  0  0  0  0  0  0  0  0  0
   11.2280   12.9135   17.5669 C   0  0  0  0  0  0  0  0  0  0  0  0
   12.3782    5.4231   20.7777 C   0  0  0  0  0  0  0  0  0  0  0  0
    7.7365    4.6508   21.6987 C   0  0  0  0  0  0  0  0  0  0  0  0
   13.0186   11.0102   18.0020 C   0  0  0  0  0  0  0  0  0  0  0  0
    8.6628    5.7088   21.8871 N   0  0  0  0  0  0  0  0  0  0  0  0
    5.6516    3.5258   21.9140 C   0  0  0  0  0  0  0  0  0  0  0  0
   11.5863    9.6815   19.4539 C   0  0  0  0  0  0  0  0  0  0  0  0
   12.9648    4.1543   20.9205 C   0  0  0  0  0  0  0  0  0  0  0  0
    8.2089    3.6265   20.8929 C   0  0  0  0  0  0  0  0  0  0  0  0
    7.3827    2.5724   20.5432 C   0  0  0  0  0  0  0  0  0  0  0  0
   11.1529    7.2750   20.8025 C   0  0  0  0  0  0  0  0  0  0  0  0
   10.2573    8.3215   20.9827 C   0  0  0  0  0  0  0  0  0  0  0  0
   11.1606    5.9378   21.2366 N   0  0  0  0  0  0  0  0  0  0  0  0
    9.8932   11.6736   19.0677 O   0  0  0  0  0  0  0  0  0  0  0  0
    6.4470    4.5850   22.2321 C   0  0  0  0  0  0  0  0  0  0  0  0
    8.4619    6.9895   22.2968 C   0  0  0  0  0  0  0  0  0  0  0  0
   12.2747    7.5102   20.0420 C   0  0  0  0  0  0  0  0  0  0  0  0
   14.2544    6.2142   19.4191 C   0  0  0  0  0  0  0  0  0  0  0  0
   13.0695    6.3705   20.0375 N   0  0  0  0  0  0  0  0  0  0  0  0
    9.1913    8.0876   21.8361 N   0  0  0  0  0  0  0  0  0  0  0  0
   10.4739    9.4813   20.2889 C   0  0  0  0  0  0  0  0  0  0  0  0
    7.5551    7.1270   23.1200 O   0  0  0  0  0  0  0  0  0  0  0  0
  1 11  4  0
  1 21  4  0
  2  4  1  0
  2  8  1  0
  2 11  1  0
  3 10  4  0
  3 14  4  0
  4  5  1  0
  4 18  2  0
  6 12  1  0
  6 17  4  0
  6 23  4  0
  7  9  1  0
  7 13  4  0
  7 19  4  0
  9 20  1  0
 10 19  4  0
 11 25  4  0
 13 14  4  0
 15 16  4  0
 15 17  4  0
 15 21  4  0
 16 24  1  0
 16 25  4  0
 20 24  1  0
 20 26  2  0
 21 23  4  0
 22 23  1  0
M  END
$$$$

 Created by Python create_sdf_string function

 26 28  0  0  0  0  0  0  0  0999 V2000
   12.4616    8.6700   19.4180 N   0  0  0  0  0  0  0  0  0  0  0  0
   11.8329   10.8148   18.6769 N   0  0  0  0  0  0  0  0  0  0  0  0
    6.1021    2.5564   21.0678 C   0  0  0  0  0  0  0  0  0  0  0  0
   10.9097   11.8051   18.4804 C   0  0  0  0  0  0  0  0  0  0  0  0
   11.2280   12.9135   17.5669 C   0  0  0  0  0  0  0  0  0  0  0  0
   12.3782    5.4231   20.7777 C   0  0  0  0  0  0  0  0  0  0  0  0
    7.7365    4.6508   21.6987 C   0  0  0  0  0  0  0  0  0  0  0  0
   13.0186   11.0102   18.0020 C   0  0  0  0  0  0  0  0  0  0  0  0
    8.6628    5.7088   21.8871 N   0  0  0  0  0  0  0  0  0  0  0  0
    5.6516    3.5258   21.9140 C   0  0  0  0  0  0  0  0  0  0  0  0
   11.5863    9.6815   19.4539 C   0  0  0  0  0  0  0  0  0  0  0  0
   12.9648    4.1543   20.9205 C   0  0  0  0  0  0  0  0  0  0  0  0
    8.2089    3.6265   20.8929 C   0  0  0  0  0  0  0  0  0  0  0  0
    7.3827    2.5724   20.5432 C   0  0  0  0  0  0  0  0  0  0  0  0
   11.1529    7.2750   20.8025 C   0  0  0  0  0  0  0  0  0  0  0  0
   10.2573    8.3215   20.9827 C   0  0  0  0  0  0  0  0  0  0  0  0
   11.1606    5.9378   21.2366 N   0  0  0  0  0  0  0  0  0  0  0  0
    9.8932   11.6736   19.0677 O   0  0  0  0  0  0  0  0  0  0  0  0
    6.4470    4.5850   22.2321 C   0  0  0  0  0  0  0  0  0  0  0  0
    8.4619    6.9895   22.2968 C   0  0  0  0  0  0  0  0  0  0  0  0
   12.2747    7.5102   20.0420 C   0  0  0  0  0  0  0  0  0  0  0  0
   14.2544    6.2142   19.4191 C   0  0  0  0  0  0  0  0  0  0  0  0
   13.0695    6.3705   20.0375 N   0  0  0  0  0  0  0  0  0  0  0  0
    9.1913    8.0876   21.8361 N   0  0  0  0  0  0  0  0  0  0  0  0
   10.4739    9.4813   20.2889 C   0  0  0  0  0  0  0  0  0  0  0  0
    7.5551    7.1270   23.1200 O   0  0  0  0  0  0  0  0  0  0  0  0
  1 11  4  0
  1 21  4  0
  2  4  1  0
  2  8  1  0
  2 11  1  0
  3 10  4  0
  3 14  4  0
  4  5  1  0
  4 18  2  0
  6 12  1  0
  6 17  4  0
  6 23  4  0
  7  9  1  0
  7 13  4  0
  7 19  4  0
  9 20  1  0
 10 19  4  0
 11 25  4  0
 13 14  4  0
 15 16  4  0
 15 17  4  0
 15 21  4  0
 16 24  1  0
 16 25  4  0
 20 24  1  0
 20 26  2  0
 21 23  4  0
 22 23  1  0
M  END
$$$$

 Created by Python create_sdf_string function

 26 28  0  0  0  0  0  0  0  0999 V2000
   12.4616    8.6700   19.4180 N   0  0  0  0  0  0  0  0  0  0  0  0
   11.8329   10.8148   18.6769 N   0  0  0  0  0  0  0  0  0  0  0  0
    6.1021    2.5564   21.0678 C   0  0  0  0  0  0  0  0  0  0  0  0
   10.9097   11.8051   18.4804 C   0  0  0  0  0  0  0  0  0  0  0  0
   11.2280   12.9135   17.5669 C   0  0  0  0  0  0  0  0  0  0  0  0
   12.3782    5.4231   20.7777 C   0  0  0  0  0  0  0  0  0  0  0  0
    7.7365    4.6508   21.6987 C   0  0  0  0  0  0  0  0  0  0  0  0
   13.0186   11.0102   18.0020 C   0  0  0  0  0  0  0  0  0  0  0  0
    8.6628    5.7088   21.8871 N   0  0  0  0  0  0  0  0  0  0  0  0
    5.6516    3.5258   21.9140 C   0  0  0  0  0  0  0  0  0  0  0  0
   11.5863    9.6815   19.4539 C   0  0  0  0  0  0  0  0  0  0  0  0
   12.9648    4.1543   20.9205 C   0  0  0  0  0  0  0  0  0  0  0  0
    8.2089    3.6265   20.8929 C   0  0  0  0  0  0  0  0  0  0  0  0
    7.3827    2.5724   20.5432 C   0  0  0  0  0  0  0  0  0  0  0  0
   11.1529    7.2750   20.8025 C   0  0  0  0  0  0  0  0  0  0  0  0
   10.2573    8.3215   20.9827 C   0  0  0  0  0  0  0  0  0  0  0  0
   11.1606    5.9378   21.2366 N   0  0  0  0  0  0  0  0  0  0  0  0
    9.8932   11.6736   19.0677 O   0  0  0  0  0  0  0  0  0  0  0  0
    6.4470    4.5850   22.2321 C   0  0  0  0  0  0  0  0  0  0  0  0
    8.4619    6.9895   22.2968 C   0  0  0  0  0  0  0  0  0  0  0  0
   12.2747    7.5102   20.0420 C   0  0  0  0  0  0  0  0  0  0  0  0
   14.2544    6.2142   19.4191 C   0  0  0  0  0  0  0  0  0  0  0  0
   13.0695    6.3705   20.0375 N   0  0  0  0  0  0  0  0  0  0  0  0
    9.1913    8.0876   21.8361 N   0  0  0  0  0  0  0  0  0  0  0  0
   10.4739    9.4813   20.2889 C   0  0  0  0  0  0  0  0  0  0  0  0
    7.5551    7.1270   23.1200 O   0  0  0  0  0  0  0  0  0  0  0  0
  1 11  4  0
  1 21  4  0
  2  4  1  0
  2  8  1  0
  2 11  1  0
  3 10  4  0
  3 14  4  0
  4  5  1  0
  4 18  2  0
  6 12  1  0
  6 17  4  0
  6 23  4  0
  7  9  1  0
  7 13  4  0
  7 19  4  0
  9 20  1  0
 10 19  4  0
 11 25  4  0
 13 14  4  0
 15 16  4  0
 15 17  4  0
 15 21  4  0
 16 24  1  0
 16 25  4  0
 20 24  1  0
 20 26  2  0
 21 23  4  0
 22 23  1  0
M  END
$$$$

 Created by Python create_sdf_string function

 26 28  0  0  0  0  0  0  0  0999 V2000
   12.4616    8.6700   19.4180 N   0  0  0  0  0  0  0  0  0  0  0  0
   11.8329   10.8148   18.6769 N   0  0  0  0  0  0  0  0  0  0  0  0
    6.1021    2.5564   21.0678 C   0  0  0  0  0  0  0  0  0  0  0  0
   10.9097   11.8051   18.4804 C   0  0  0  0  0  0  0  0  0  0  0  0
   11.2280   12.9135   17.5669 C   0  0  0  0  0  0  0  0  0  0  0  0
   12.3782    5.4231   20.7777 C   0  0  0  0  0  0  0  0  0  0  0  0
    7.7365    4.6508   21.6987 C   0  0  0  0  0  0  0  0  0  0  0  0
   13.0186   11.0102   18.0020 C   0  0  0  0  0  0  0  0  0  0  0  0
    8.6628    5.7088   21.8871 N   0  0  0  0  0  0  0  0  0  0  0  0
    5.6516    3.5258   21.9140 C   0  0  0  0  0  0  0  0  0  0  0  0
   11.5863    9.6815   19.4539 C   0  0  0  0  0  0  0  0  0  0  0  0
   12.9648    4.1543   20.9205 C   0  0  0  0  0  0  0  0  0  0  0  0
    8.2089    3.6265   20.8929 C   0  0  0  0  0  0  0  0  0  0  0  0
    7.3827    2.5724   20.5432 C   0  0  0  0  0  0  0  0  0  0  0  0
   11.1529    7.2750   20.8025 C   0  0  0  0  0  0  0  0  0  0  0  0
   10.2573    8.3215   20.9827 C   0  0  0  0  0  0  0  0  0  0  0  0
   11.1606    5.9378   21.2366 N   0  0  0  0  0  0  0  0  0  0  0  0
    9.8932   11.6736   19.0677 O   0  0  0  0  0  0  0  0  0  0  0  0
    6.4470    4.5850   22.2321 C   0  0  0  0  0  0  0  0  0  0  0  0
    8.4619    6.9895   22.2968 C   0  0  0  0  0  0  0  0  0  0  0  0
   12.2747    7.5102   20.0420 C   0  0  0  0  0  0  0  0  0  0  0  0
   14.2544    6.2142   19.4191 C   0  0  0  0  0  0  0  0  0  0  0  0
   13.0695    6.3705   20.0375 N   0  0  0  0  0  0  0  0  0  0  0  0
    9.1913    8.0876   21.8361 N   0  0  0  0  0  0  0  0  0  0  0  0
   10.4739    9.4813   20.2889 C   0  0  0  0  0  0  0  0  0  0  0  0
    7.5551    7.1270   23.1200 O   0  0  0  0  0  0  0  0  0  0  0  0
  1 11  4  0
  1 21  4  0
  2  4  1  0
  2  8  1  0
  2 11  1  0
  3 10  4  0
  3 14  4  0
  4  5  1  0
  4 18  2  0
  6 12  1  0
  6 17  4  0
  6 23  4  0
  7  9  1  0
  7 13  4  0
  7 19  4  0
  9 20  1  0
 10 19  4  0
 11 25  4  0
 13 14  4  0
 15 16  4  0
 15 17  4  0
 15 21  4  0
 16 24  1  0
 16 25  4  0
 20 24  1  0
 20 26  2  0
 21 23  4  0
 22 23  1  0
M  END
$$$$

 Created by Python create_sdf_string function

 26 28  0  0  0  0  0  0  0  0999 V2000
   12.4616    8.6700   19.4180 N   0  0  0  0  0  0  0  0  0  0  0  0
   11.8329   10.8148   18.6769 N   0  0  0  0  0  0  0  0  0  0  0  0
    6.1021    2.5564   21.0678 C   0  0  0  0  0  0  0  0  0  0  0  0
   10.9097   11.8051   18.4804 C   0  0  0  0  0  0  0  0  0  0  0  0
   11.2280   12.9135   17.5669 C   0  0  0  0  0  0  0  0  0  0  0  0
   12.3782    5.4231   20.7777 C   0  0  0  0  0  0  0  0  0  0  0  0
    7.7365    4.6508   21.6987 C   0  0  0  0  0  0  0  0  0  0  0  0
   13.0186   11.0102   18.0020 C   0  0  0  0  0  0  0  0  0  0  0  0
    8.6628    5.7088   21.8871 N   0  0  0  0  0  0  0  0  0  0  0  0
    5.6516    3.5258   21.9140 C   0  0  0  0  0  0  0  0  0  0  0  0
   11.5863    9.6815   19.4539 C   0  0  0  0  0  0  0  0  0  0  0  0
   12.9648    4.1543   20.9205 C   0  0  0  0  0  0  0  0  0  0  0  0
    8.2089    3.6265   20.8929 C   0  0  0  0  0  0  0  0  0  0  0  0
    7.3827    2.5724   20.5432 C   0  0  0  0  0  0  0  0  0  0  0  0
   11.1529    7.2750   20.8025 C   0  0  0  0  0  0  0  0  0  0  0  0
   10.2573    8.3215   20.9827 C   0  0  0  0  0  0  0  0  0  0  0  0
   11.1606    5.9378   21.2366 N   0  0  0  0  0  0  0  0  0  0  0  0
    9.8932   11.6736   19.0677 O   0  0  0  0  0  0  0  0  0  0  0  0
    6.4470    4.5850   22.2321 C   0  0  0  0  0  0  0  0  0  0  0  0
    8.4619    6.9895   22.2968 C   0  0  0  0  0  0  0  0  0  0  0  0
   12.2747    7.5102   20.0420 C   0  0  0  0  0  0  0  0  0  0  0  0
   14.2544    6.2142   19.4191 C   0  0  0  0  0  0  0  0  0  0  0  0
   13.0695    6.3705   20.0375 N   0  0  0  0  0  0  0  0  0  0  0  0
    9.1913    8.0876   21.8361 N   0  0  0  0  0  0  0  0  0  0  0  0
   10.4739    9.4813   20.2889 C   0  0  0  0  0  0  0  0  0  0  0  0
    7.5551    7.1270   23.1200 O   0  0  0  0  0  0  0  0  0  0  0  0
  1 11  4  0
  1 21  4  0
  2  4  1  0
  2  8  1  0
  2 11  1  0
  3 10  4  0
  3 14  4  0
  4  5  1  0
  4 18  2  0
  6 12  1  0
  6 17  4  0
  6 23  4  0
  7  9  1  0
  7 13  4  0
  7 19  4  0
  9 20  1  0
 10 19  4  0
 11 25  4  0
 13 14  4  0
 15 16  4  0
 15 17  4  0
 15 21  4  0
 16 24  1  0
 16 25  4  0
 20 24  1  0
 20 26  2  0
 21 23  4  0
 22 23  1  0
M  END
$$$$

 Created by Python create_sdf_string function

 26 28  0  0  0  0  0  0  0  0999 V2000
   12.4616    8.6700   19.4180 N   0  0  0  0  0  0  0  0  0  0  0  0
   11.8329   10.8148   18.6769 N   0  0  0  0  0  0  0  0  0  0  0  0
    6.1021    2.5564   21.0678 C   0  0  0  0  0  0  0  0  0  0  0  0
   10.9097   11.8051   18.4804 C   0  0  0  0  0  0  0  0  0  0  0  0
   11.2280   12.9135   17.5669 C   0  0  0  0  0  0  0  0  0  0  0  0
   12.3782    5.4231   20.7777 C   0  0  0  0  0  0  0  0  0  0  0  0
    7.7365    4.6508   21.6987 C   0  0  0  0  0  0  0  0  0  0  0  0
   13.0186   11.0102   18.0020 C   0  0  0  0  0  0  0  0  0  0  0  0
    8.6628    5.7088   21.8871 N   0  0  0  0  0  0  0  0  0  0  0  0
    5.6516    3.5258   21.9140 C   0  0  0  0  0  0  0  0  0  0  0  0
   11.5863    9.6815   19.4539 C   0  0  0  0  0  0  0  0  0  0  0  0
   12.9648    4.1543   20.9205 C   0  0  0  0  0  0  0  0  0  0  0  0
    8.2089    3.6265   20.8929 C   0  0  0  0  0  0  0  0  0  0  0  0
    7.3827    2.5724   20.5432 C   0  0  0  0  0  0  0  0  0  0  0  0
   11.1529    7.2750   20.8025 C   0  0  0  0  0  0  0  0  0  0  0  0
   10.2573    8.3215   20.9827 C   0  0  0  0  0  0  0  0  0  0  0  0
   11.1606    5.9378   21.2366 N   0  0  0  0  0  0  0  0  0  0  0  0
    9.8932   11.6736   19.0677 O   0  0  0  0  0  0  0  0  0  0  0  0
    6.4470    4.5850   22.2321 C   0  0  0  0  0  0  0  0  0  0  0  0
    8.4619    6.9895   22.2968 C   0  0  0  0  0  0  0  0  0  0  0  0
   12.2747    7.5102   20.0420 C   0  0  0  0  0  0  0  0  0  0  0  0
   14.2544    6.2142   19.4191 C   0  0  0  0  0  0  0  0  0  0  0  0
   13.0695    6.3705   20.0375 N   0  0  0  0  0  0  0  0  0  0  0  0
    9.1913    8.0876   21.8361 N   0  0  0  0  0  0  0  0  0  0  0  0
   10.4739    9.4813   20.2889 C   0  0  0  0  0  0  0  0  0  0  0  0
    7.5551    7.1270   23.1200 O   0  0  0  0  0  0  0  0  0  0  0  0
  1 11  4  0
  1 21  4  0
  2  4  1  0
  2  8  1  0
  2 11  1  0
  3 10  4  0
  3 14  4  0
  4  5  1  0
  4 18  2  0
  6 12  1  0
  6 17  4  0
  6 23  4  0
  7  9  1  0
  7 13  4  0
  7 19  4  0
  9 20  1  0
 10 19  4  0
 11 25  4  0
 13 14  4  0
 15 16  4  0
 15 17  4  0
 15 21  4  0
 16 24  1  0
 16 25  4  0
 20 24  1  0
 20 26  2  0
 21 23  4  0
 22 23  1  0
M  END
$$$$

 Created by Python create_sdf_string function

 26 28  0  0  0  0  0  0  0  0999 V2000
   12.4616    8.6700   19.4180 N   0  0  0  0  0  0  0  0  0  0  0  0
   11.8329   10.8148   18.6769 N   0  0  0  0  0  0  0  0  0  0  0  0
    6.1021    2.5564   21.0678 C   0  0  0  0  0  0  0  0  0  0  0  0
   10.9097   11.8051   18.4804 C   0  0  0  0  0  0  0  0  0  0  0  0
   11.2280   12.9135   17.5669 C   0  0  0  0  0  0  0  0  0  0  0  0
   12.3782    5.4231   20.7777 C   0  0  0  0  0  0  0  0  0  0  0  0
    7.7365    4.6508   21.6987 C   0  0  0  0  0  0  0  0  0  0  0  0
   13.0186   11.0102   18.0020 C   0  0  0  0  0  0  0  0  0  0  0  0
    8.6628    5.7088   21.8871 N   0  0  0  0  0  0  0  0  0  0  0  0
    5.6516    3.5258   21.9140 C   0  0  0  0  0  0  0  0  0  0  0  0
   11.5863    9.6815   19.4539 C   0  0  0  0  0  0  0  0  0  0  0  0
   12.9648    4.1543   20.9205 C   0  0  0  0  0  0  0  0  0  0  0  0
    8.2089    3.6265   20.8929 C   0  0  0  0  0  0  0  0  0  0  0  0
    7.3827    2.5724   20.5432 C   0  0  0  0  0  0  0  0  0  0  0  0
   11.1529    7.2750   20.8025 C   0  0  0  0  0  0  0  0  0  0  0  0
   10.2573    8.3215   20.9827 C   0  0  0  0  0  0  0  0  0  0  0  0
   11.1606    5.9378   21.2366 N   0  0  0  0  0  0  0  0  0  0  0  0
    9.8932   11.6736   19.0677 O   0  0  0  0  0  0  0  0  0  0  0  0
    6.4470    4.5850   22.2321 C   0  0  0  0  0  0  0  0  0  0  0  0
    8.4619    6.9895   22.2968 C   0  0  0  0  0  0  0  0  0  0  0  0
   12.2747    7.5102   20.0420 C   0  0  0  0  0  0  0  0  0  0  0  0
   14.2544    6.2142   19.4191 C   0  0  0  0  0  0  0  0  0  0  0  0
   13.0695    6.3705   20.0375 N   0  0  0  0  0  0  0  0  0  0  0  0
    9.1913    8.0876   21.8361 N   0  0  0  0  0  0  0  0  0  0  0  0
   10.4739    9.4813   20.2889 C   0  0  0  0  0  0  0  0  0  0  0  0
    7.5551    7.1270   23.1200 O   0  0  0  0  0  0  0  0  0  0  0  0
  1 11  4  0
  1 21  4  0
  2  4  1  0
  2  8  1  0
  2 11  1  0
  3 10  4  0
  3 14  4  0
  4  5  1  0
  4 18  2  0
  6 12  1  0
  6 17  4  0
  6 23  4  0
  7  9  1  0
  7 13  4  0
  7 19  4  0
  9 20  1  0
 10 19  4  0
 11 25  4  0
 13 14  4  0
 15 16  4  0
 15 17  4  0
 15 21  4  0
 16 24  1  0
 16 25  4  0
 20 24  1  0
 20 26  2  0
 21 23  4  0
 22 23  1  0
M  END
$$$$

 Created by Python create_sdf_string function

 26 28  0  0  0  0  0  0  0  0999 V2000
   12.4616    8.6700   19.4180 N   0  0  0  0  0  0  0  0  0  0  0  0
   11.8329   10.8148   18.6769 N   0  0  0  0  0  0  0  0  0  0  0  0
    6.1021    2.5564   21.0678 C   0  0  0  0  0  0  0  0  0  0  0  0
   10.9097   11.8051   18.4804 C   0  0  0  0  0  0  0  0  0  0  0  0
   11.2280   12.9135   17.5669 C   0  0  0  0  0  0  0  0  0  0  0  0
   12.3782    5.4231   20.7777 C   0  0  0  0  0  0  0  0  0  0  0  0
    7.7365    4.6508   21.6987 C   0  0  0  0  0  0  0  0  0  0  0  0
   13.0186   11.0102   18.0020 C   0  0  0  0  0  0  0  0  0  0  0  0
    8.6628    5.7088   21.8871 N   0  0  0  0  0  0  0  0  0  0  0  0
    5.6516    3.5258   21.9140 C   0  0  0  0  0  0  0  0  0  0  0  0
   11.5863    9.6815   19.4539 C   0  0  0  0  0  0  0  0  0  0  0  0
   12.9648    4.1543   20.9205 C   0  0  0  0  0  0  0  0  0  0  0  0
    8.2089    3.6265   20.8929 C   0  0  0  0  0  0  0  0  0  0  0  0
    7.3827    2.5724   20.5432 C   0  0  0  0  0  0  0  0  0  0  0  0
   11.1529    7.2750   20.8025 C   0  0  0  0  0  0  0  0  0  0  0  0
   10.2573    8.3215   20.9827 C   0  0  0  0  0  0  0  0  0  0  0  0
   11.1606    5.9378   21.2366 N   0  0  0  0  0  0  0  0  0  0  0  0
    9.8932   11.6736   19.0677 O   0  0  0  0  0  0  0  0  0  0  0  0
    6.4470    4.5850   22.2321 C   0  0  0  0  0  0  0  0  0  0  0  0
    8.4619    6.9895   22.2968 C   0  0  0  0  0  0  0  0  0  0  0  0
   12.2747    7.5102   20.0420 C   0  0  0  0  0  0  0  0  0  0  0  0
   14.2544    6.2142   19.4191 C   0  0  0  0  0  0  0  0  0  0  0  0
   13.0695    6.3705   20.0375 N   0  0  0  0  0  0  0  0  0  0  0  0
    9.1913    8.0876   21.8361 N   0  0  0  0  0  0  0  0  0  0  0  0
   10.4739    9.4813   20.2889 C   0  0  0  0  0  0  0  0  0  0  0  0
    7.5551    7.1270   23.1200 O   0  0  0  0  0  0  0  0  0  0  0  0
  1 11  4  0
  1 21  4  0
  2  4  1  0
  2  8  1  0
  2 11  1  0
  3 10  4  0
  3 14  4  0
  4  5  1  0
  4 18  2  0
  6 12  1  0
  6 17  4  0
  6 23  4  0
  7  9  1  0
  7 13  4  0
  7 19  4  0
  9 20  1  0
 10 19  4  0
 11 25  4  0
 13 14  4  0
 15 16  4  0
 15 17  4  0
 15 21  4  0
 16 24  1  0
 16 25  4  0
 20 24  1  0
 20 26  2  0
 21 23  4  0
 22 23  1  0
M  END
$$$$

 Created by Python create_sdf_string function

 26 28  0  0  0  0  0  0  0  0999 V2000
   12.4616    8.6700   19.4180 N   0  0  0  0  0  0  0  0  0  0  0  0
   11.8329   10.8148   18.6769 N   0  0  0  0  0  0  0  0  0  0  0  0
    6.1021    2.5564   21.0678 C   0  0  0  0  0  0  0  0  0  0  0  0
   10.9097   11.8051   18.4804 C   0  0  0  0  0  0  0  0  0  0  0  0
   11.2280   12.9135   17.5669 C   0  0  0  0  0  0  0  0  0  0  0  0
   12.3782    5.4231   20.7777 C   0  0  0  0  0  0  0  0  0  0  0  0
    7.7365    4.6508   21.6987 C   0  0  0  0  0  0  0  0  0  0  0  0
   13.0186   11.0102   18.0020 C   0  0  0  0  0  0  0  0  0  0  0  0
    8.6628    5.7088   21.8871 N   0  0  0  0  0  0  0  0  0  0  0  0
    5.6516    3.5258   21.9140 C   0  0  0  0  0  0  0  0  0  0  0  0
   11.5863    9.6815   19.4539 C   0  0  0  0  0  0  0  0  0  0  0  0
   12.9648    4.1543   20.9205 C   0  0  0  0  0  0  0  0  0  0  0  0
    8.2089    3.6265   20.8929 C   0  0  0  0  0  0  0  0  0  0  0  0
    7.3827    2.5724   20.5432 C   0  0  0  0  0  0  0  0  0  0  0  0
   11.1529    7.2750   20.8025 C   0  0  0  0  0  0  0  0  0  0  0  0
   10.2573    8.3215   20.9827 C   0  0  0  0  0  0  0  0  0  0  0  0
   11.1606    5.9378   21.2366 N   0  0  0  0  0  0  0  0  0  0  0  0
    9.8932   11.6736   19.0677 O   0  0  0  0  0  0  0  0  0  0  0  0
    6.4470    4.5850   22.2321 C   0  0  0  0  0  0  0  0  0  0  0  0
    8.4619    6.9895   22.2968 C   0  0  0  0  0  0  0  0  0  0  0  0
   12.2747    7.5102   20.0420 C   0  0  0  0  0  0  0  0  0  0  0  0
   14.2544    6.2142   19.4191 C   0  0  0  0  0  0  0  0  0  0  0  0
   13.0695    6.3705   20.0375 N   0  0  0  0  0  0  0  0  0  0  0  0
    9.1913    8.0876   21.8361 N   0  0  0  0  0  0  0  0  0  0  0  0
   10.4739    9.4813   20.2889 C   0  0  0  0  0  0  0  0  0  0  0  0
    7.5551    7.1270   23.1200 O   0  0  0  0  0  0  0  0  0  0  0  0
  1 11  4  0
  1 21  4  0
  2  4  1  0
  2  8  1  0
  2 11  1  0
  3 10  4  0
  3 14  4  0
  4  5  1  0
  4 18  2  0
  6 12  1  0
  6 17  4  0
  6 23  4  0
  7  9  1  0
  7 13  4  0
  7 19  4  0
  9 20  1  0
 10 19  4  0
 11 25  4  0
 13 14  4  0
 15 16  4  0
 15 17  4  0
 15 21  4  0
 16 24  1  0
 16 25  4  0
 20 24  1  0
 20 26  2  0
 21 23  4  0
 22 23  1  0
M  END
$$$$

 Created by Python create_sdf_string function

 26 28  0  0  0  0  0  0  0  0999 V2000
   12.4616    8.6700   19.4180 N   0  0  0  0  0  0  0  0  0  0  0  0
   11.8329   10.8148   18.6769 N   0  0  0  0  0  0  0  0  0  0  0  0
    6.1021    2.5564   21.0678 C   0  0  0  0  0  0  0  0  0  0  0  0
   10.9097   11.8051   18.4804 C   0  0  0  0  0  0  0  0  0  0  0  0
   11.2280   12.9135   17.5669 C   0  0  0  0  0  0  0  0  0  0  0  0
   12.3782    5.4231   20.7777 C   0  0  0  0  0  0  0  0  0  0  0  0
    7.7365    4.6508   21.6987 C   0  0  0  0  0  0  0  0  0  0  0  0
   13.0186   11.0102   18.0020 C   0  0  0  0  0  0  0  0  0  0  0  0
    8.6628    5.7088   21.8871 N   0  0  0  0  0  0  0  0  0  0  0  0
    5.6516    3.5258   21.9140 C   0  0  0  0  0  0  0  0  0  0  0  0
   11.5863    9.6815   19.4539 C   0  0  0  0  0  0  0  0  0  0  0  0
   12.9648    4.1543   20.9205 C   0  0  0  0  0  0  0  0  0  0  0  0
    8.2089    3.6265   20.8929 C   0  0  0  0  0  0  0  0  0  0  0  0
    7.3827    2.5724   20.5432 C   0  0  0  0  0  0  0  0  0  0  0  0
   11.1529    7.2750   20.8025 C   0  0  0  0  0  0  0  0  0  0  0  0
   10.2573    8.3215   20.9827 C   0  0  0  0  0  0  0  0  0  0  0  0
   11.1606    5.9378   21.2366 N   0  0  0  0  0  0  0  0  0  0  0  0
    9.8932   11.6736   19.0677 O   0  0  0  0  0  0  0  0  0  0  0  0
    6.4470    4.5850   22.2321 C   0  0  0  0  0  0  0  0  0  0  0  0
    8.4619    6.9895   22.2968 C   0  0  0  0  0  0  0  0  0  0  0  0
   12.2747    7.5102   20.0420 C   0  0  0  0  0  0  0  0  0  0  0  0
   14.2544    6.2142   19.4191 C   0  0  0  0  0  0  0  0  0  0  0  0
   13.0695    6.3705   20.0375 N   0  0  0  0  0  0  0  0  0  0  0  0
    9.1913    8.0876   21.8361 N   0  0  0  0  0  0  0  0  0  0  0  0
   10.4739    9.4813   20.2889 C   0  0  0  0  0  0  0  0  0  0  0  0
    7.5551    7.1270   23.1200 O   0  0  0  0  0  0  0  0  0  0  0  0
  1 11  4  0
  1 21  4  0
  2  4  1  0
  2  8  1  0
  2 11  1  0
  3 10  4  0
  3 14  4  0
  4  5  1  0
  4 18  2  0
  6 12  1  0
  6 17  4  0
  6 23  4  0
  7  9  1  0
  7 13  4  0
  7 19  4  0
  9 20  1  0
 10 19  4  0
 11 25  4  0
 13 14  4  0
 15 16  4  0
 15 17  4  0
 15 21  4  0
 16 24  1  0
 16 25  4  0
 20 24  1  0
 20 26  2  0
 21 23  4  0
 22 23  1  0
M  END
$$$$

 Created by Python create_sdf_string function

 26 28  0  0  0  0  0  0  0  0999 V2000
   12.4616    8.6700   19.4180 N   0  0  0  0  0  0  0  0  0  0  0  0
   11.8329   10.8148   18.6769 N   0  0  0  0  0  0  0  0  0  0  0  0
    6.1021    2.5564   21.0678 C   0  0  0  0  0  0  0  0  0  0  0  0
   10.9097   11.8051   18.4804 C   0  0  0  0  0  0  0  0  0  0  0  0
   11.2280   12.9135   17.5669 C   0  0  0  0  0  0  0  0  0  0  0  0
   12.3782    5.4231   20.7777 C   0  0  0  0  0  0  0  0  0  0  0  0
    7.7365    4.6508   21.6987 C   0  0  0  0  0  0  0  0  0  0  0  0
   13.0186   11.0102   18.0020 C   0  0  0  0  0  0  0  0  0  0  0  0
    8.6628    5.7088   21.8871 N   0  0  0  0  0  0  0  0  0  0  0  0
    5.6516    3.5258   21.9140 C   0  0  0  0  0  0  0  0  0  0  0  0
   11.5863    9.6815   19.4539 C   0  0  0  0  0  0  0  0  0  0  0  0
   12.9648    4.1543   20.9205 C   0  0  0  0  0  0  0  0  0  0  0  0
    8.2089    3.6265   20.8929 C   0  0  0  0  0  0  0  0  0  0  0  0
    7.3827    2.5724   20.5432 C   0  0  0  0  0  0  0  0  0  0  0  0
   11.1529    7.2750   20.8025 C   0  0  0  0  0  0  0  0  0  0  0  0
   10.2573    8.3215   20.9827 C   0  0  0  0  0  0  0  0  0  0  0  0
   11.1606    5.9378   21.2366 N   0  0  0  0  0  0  0  0  0  0  0  0
    9.8932   11.6736   19.0677 O   0  0  0  0  0  0  0  0  0  0  0  0
    6.4470    4.5850   22.2321 C   0  0  0  0  0  0  0  0  0  0  0  0
    8.4619    6.9895   22.2968 C   0  0  0  0  0  0  0  0  0  0  0  0
   12.2747    7.5102   20.0420 C   0  0  0  0  0  0  0  0  0  0  0  0
   14.2544    6.2142   19.4191 C   0  0  0  0  0  0  0  0  0  0  0  0
   13.0695    6.3705   20.0375 N   0  0  0  0  0  0  0  0  0  0  0  0
    9.1913    8.0876   21.8361 N   0  0  0  0  0  0  0  0  0  0  0  0
   10.4739    9.4813   20.2889 C   0  0  0  0  0  0  0  0  0  0  0  0
    7.5551    7.1270   23.1200 O   0  0  0  0  0  0  0  0  0  0  0  0
  1 11  4  0
  1 21  4  0
  2  4  1  0
  2  8  1  0
  2 11  1  0
  3 10  4  0
  3 14  4  0
  4  5  1  0
  4 18  2  0
  6 12  1  0
  6 17  4  0
  6 23  4  0
  7  9  1  0
  7 13  4  0
  7 19  4  0
  9 20  1  0
 10 19  4  0
 11 25  4  0
 13 14  4  0
 15 16  4  0
 15 17  4  0
 15 21  4  0
 16 24  1  0
 16 25  4  0
 20 24  1  0
 20 26  2  0
 21 23  4  0
 22 23  1  0
M  END
$$$$

 Created by Python create_sdf_string function

 26 28  0  0  0  0  0  0  0  0999 V2000
   12.4616    8.6700   19.4180 N   0  0  0  0  0  0  0  0  0  0  0  0
   11.8329   10.8148   18.6769 N   0  0  0  0  0  0  0  0  0  0  0  0
    6.1021    2.5564   21.0678 C   0  0  0  0  0  0  0  0  0  0  0  0
   10.9097   11.8051   18.4804 C   0  0  0  0  0  0  0  0  0  0  0  0
   11.2280   12.9135   17.5669 C   0  0  0  0  0  0  0  0  0  0  0  0
   12.3782    5.4231   20.7777 C   0  0  0  0  0  0  0  0  0  0  0  0
    7.7365    4.6508   21.6987 C   0  0  0  0  0  0  0  0  0  0  0  0
   13.0186   11.0102   18.0020 C   0  0  0  0  0  0  0  0  0  0  0  0
    8.6628    5.7088   21.8871 N   0  0  0  0  0  0  0  0  0  0  0  0
    5.6516    3.5258   21.9140 C   0  0  0  0  0  0  0  0  0  0  0  0
   11.5863    9.6815   19.4539 C   0  0  0  0  0  0  0  0  0  0  0  0
   12.9648    4.1543   20.9205 C   0  0  0  0  0  0  0  0  0  0  0  0
    8.2089    3.6265   20.8929 C   0  0  0  0  0  0  0  0  0  0  0  0
    7.3827    2.5724   20.5432 C   0  0  0  0  0  0  0  0  0  0  0  0
   11.1529    7.2750   20.8025 C   0  0  0  0  0  0  0  0  0  0  0  0
   10.2573    8.3215   20.9827 C   0  0  0  0  0  0  0  0  0  0  0  0
   11.1606    5.9378   21.2366 N   0  0  0  0  0  0  0  0  0  0  0  0
    9.8932   11.6736   19.0677 O   0  0  0  0  0  0  0  0  0  0  0  0
    6.4470    4.5850   22.2321 C   0  0  0  0  0  0  0  0  0  0  0  0
    8.4619    6.9895   22.2968 C   0  0  0  0  0  0  0  0  0  0  0  0
   12.2747    7.5102   20.0420 C   0  0  0  0  0  0  0  0  0  0  0  0
   14.2544    6.2142   19.4191 C   0  0  0  0  0  0  0  0  0  0  0  0
   13.0695    6.3705   20.0375 N   0  0  0  0  0  0  0  0  0  0  0  0
    9.1913    8.0876   21.8361 N   0  0  0  0  0  0  0  0  0  0  0  0
   10.4739    9.4813   20.2889 C   0  0  0  0  0  0  0  0  0  0  0  0
    7.5551    7.1270   23.1200 O   0  0  0  0  0  0  0  0  0  0  0  0
  1 11  4  0
  1 21  4  0
  2  4  1  0
  2  8  1  0
  2 11  1  0
  3 10  4  0
  3 14  4  0
  4  5  1  0
  4 18  2  0
  6 12  1  0
  6 17  4  0
  6 23  4  0
  7  9  1  0
  7 13  4  0
  7 19  4  0
  9 20  1  0
 10 19  4  0
 11 25  4  0
 13 14  4  0
 15 16  4  0
 15 17  4  0
 15 21  4  0
 16 24  1  0
 16 25  4  0
 20 24  1  0
 20 26  2  0
 21 23  4  0
 22 23  1  0
M  END
$$$$

 Created by Python create_sdf_string function

 26 28  0  0  0  0  0  0  0  0999 V2000
   12.4616    8.6700   19.4180 N   0  0  0  0  0  0  0  0  0  0  0  0
   11.8329   10.8148   18.6769 N   0  0  0  0  0  0  0  0  0  0  0  0
    6.1021    2.5564   21.0678 C   0  0  0  0  0  0  0  0  0  0  0  0
   10.9097   11.8051   18.4804 C   0  0  0  0  0  0  0  0  0  0  0  0
   11.2280   12.9135   17.5669 C   0  0  0  0  0  0  0  0  0  0  0  0
   12.3782    5.4231   20.7777 C   0  0  0  0  0  0  0  0  0  0  0  0
    7.7365    4.6508   21.6987 C   0  0  0  0  0  0  0  0  0  0  0  0
   13.0186   11.0102   18.0020 C   0  0  0  0  0  0  0  0  0  0  0  0
    8.6628    5.7088   21.8871 N   0  0  0  0  0  0  0  0  0  0  0  0
    5.6516    3.5258   21.9140 C   0  0  0  0  0  0  0  0  0  0  0  0
   11.5863    9.6815   19.4539 C   0  0  0  0  0  0  0  0  0  0  0  0
   12.9648    4.1543   20.9205 C   0  0  0  0  0  0  0  0  0  0  0  0
    8.2089    3.6265   20.8929 C   0  0  0  0  0  0  0  0  0  0  0  0
    7.3827    2.5724   20.5432 C   0  0  0  0  0  0  0  0  0  0  0  0
   11.1529    7.2750   20.8025 C   0  0  0  0  0  0  0  0  0  0  0  0
   10.2573    8.3215   20.9827 C   0  0  0  0  0  0  0  0  0  0  0  0
   11.1606    5.9378   21.2366 N   0  0  0  0  0  0  0  0  0  0  0  0
    9.8932   11.6736   19.0677 O   0  0  0  0  0  0  0  0  0  0  0  0
    6.4470    4.5850   22.2321 C   0  0  0  0  0  0  0  0  0  0  0  0
    8.4619    6.9895   22.2968 C   0  0  0  0  0  0  0  0  0  0  0  0
   12.2747    7.5102   20.0420 C   0  0  0  0  0  0  0  0  0  0  0  0
   14.2544    6.2142   19.4191 C   0  0  0  0  0  0  0  0  0  0  0  0
   13.0695    6.3705   20.0375 N   0  0  0  0  0  0  0  0  0  0  0  0
    9.1913    8.0876   21.8361 N   0  0  0  0  0  0  0  0  0  0  0  0
   10.4739    9.4813   20.2889 C   0  0  0  0  0  0  0  0  0  0  0  0
    7.5551    7.1270   23.1200 O   0  0  0  0  0  0  0  0  0  0  0  0
  1 11  4  0
  1 21  4  0
  2  4  1  0
  2  8  1  0
  2 11  1  0
  3 10  4  0
  3 14  4  0
  4  5  1  0
  4 18  2  0
  6 12  1  0
  6 17  4  0
  6 23  4  0
  7  9  1  0
  7 13  4  0
  7 19  4  0
  9 20  1  0
 10 19  4  0
 11 25  4  0
 13 14  4  0
 15 16  4  0
 15 17  4  0
 15 21  4  0
 16 24  1  0
 16 25  4  0
 20 24  1  0
 20 26  2  0
 21 23  4  0
 22 23  1  0
M  END
$$$$

 Created by Python create_sdf_string function

 26 28  0  0  0  0  0  0  0  0999 V2000
   12.4616    8.6700   19.4180 N   0  0  0  0  0  0  0  0  0  0  0  0
   11.8329   10.8148   18.6769 N   0  0  0  0  0  0  0  0  0  0  0  0
    6.1021    2.5564   21.0678 C   0  0  0  0  0  0  0  0  0  0  0  0
   10.9097   11.8051   18.4804 C   0  0  0  0  0  0  0  0  0  0  0  0
   11.2280   12.9135   17.5669 C   0  0  0  0  0  0  0  0  0  0  0  0
   12.3782    5.4231   20.7777 C   0  0  0  0  0  0  0  0  0  0  0  0
    7.7365    4.6508   21.6987 C   0  0  0  0  0  0  0  0  0  0  0  0
   13.0186   11.0102   18.0020 C   0  0  0  0  0  0  0  0  0  0  0  0
    8.6628    5.7088   21.8871 N   0  0  0  0  0  0  0  0  0  0  0  0
    5.6516    3.5258   21.9140 C   0  0  0  0  0  0  0  0  0  0  0  0
   11.5863    9.6815   19.4539 C   0  0  0  0  0  0  0  0  0  0  0  0
   12.9648    4.1543   20.9205 C   0  0  0  0  0  0  0  0  0  0  0  0
    8.2089    3.6265   20.8929 C   0  0  0  0  0  0  0  0  0  0  0  0
    7.3827    2.5724   20.5432 C   0  0  0  0  0  0  0  0  0  0  0  0
   11.1529    7.2750   20.8025 C   0  0  0  0  0  0  0  0  0  0  0  0
   10.2573    8.3215   20.9827 C   0  0  0  0  0  0  0  0  0  0  0  0
   11.1606    5.9378   21.2366 N   0  0  0  0  0  0  0  0  0  0  0  0
    9.8932   11.6736   19.0677 O   0  0  0  0  0  0  0  0  0  0  0  0
    6.4470    4.5850   22.2321 C   0  0  0  0  0  0  0  0  0  0  0  0
    8.4619    6.9895   22.2968 C   0  0  0  0  0  0  0  0  0  0  0  0
   12.2747    7.5102   20.0420 C   0  0  0  0  0  0  0  0  0  0  0  0
   14.2544    6.2142   19.4191 C   0  0  0  0  0  0  0  0  0  0  0  0
   13.0695    6.3705   20.0375 N   0  0  0  0  0  0  0  0  0  0  0  0
    9.1913    8.0876   21.8361 N   0  0  0  0  0  0  0  0  0  0  0  0
   10.4739    9.4813   20.2889 C   0  0  0  0  0  0  0  0  0  0  0  0
    7.5551    7.1270   23.1200 O   0  0  0  0  0  0  0  0  0  0  0  0
  1 11  4  0
  1 21  4  0
  2  4  1  0
  2  8  1  0
  2 11  1  0
  3 10  4  0
  3 14  4  0
  4  5  1  0
  4 18  2  0
  6 12  1  0
  6 17  4  0
  6 23  4  0
  7  9  1  0
  7 13  4  0
  7 19  4  0
  9 20  1  0
 10 19  4  0
 11 25  4  0
 13 14  4  0
 15 16  4  0
 15 17  4  0
 15 21  4  0
 16 24  1  0
 16 25  4  0
 20 24  1  0
 20 26  2  0
 21 23  4  0
 22 23  1  0
M  END
$$$$

 Created by Python create_sdf_string function

 26 28  0  0  0  0  0  0  0  0999 V2000
   12.4616    8.6700   19.4180 N   0  0  0  0  0  0  0  0  0  0  0  0
   11.8329   10.8148   18.6769 N   0  0  0  0  0  0  0  0  0  0  0  0
    6.1021    2.5564   21.0678 C   0  0  0  0  0  0  0  0  0  0  0  0
   10.9097   11.8051   18.4804 C   0  0  0  0  0  0  0  0  0  0  0  0
   11.2280   12.9135   17.5669 C   0  0  0  0  0  0  0  0  0  0  0  0
   12.3782    5.4231   20.7777 C   0  0  0  0  0  0  0  0  0  0  0  0
    7.7365    4.6508   21.6987 C   0  0  0  0  0  0  0  0  0  0  0  0
   13.0186   11.0102   18.0020 C   0  0  0  0  0  0  0  0  0  0  0  0
    8.6628    5.7088   21.8871 N   0  0  0  0  0  0  0  0  0  0  0  0
    5.6516    3.5258   21.9140 C   0  0  0  0  0  0  0  0  0  0  0  0
   11.5863    9.6815   19.4539 C   0  0  0  0  0  0  0  0  0  0  0  0
   12.9648    4.1543   20.9205 C   0  0  0  0  0  0  0  0  0  0  0  0
    8.2089    3.6265   20.8929 C   0  0  0  0  0  0  0  0  0  0  0  0
    7.3827    2.5724   20.5432 C   0  0  0  0  0  0  0  0  0  0  0  0
   11.1529    7.2750   20.8025 C   0  0  0  0  0  0  0  0  0  0  0  0
   10.2573    8.3215   20.9827 C   0  0  0  0  0  0  0  0  0  0  0  0
   11.1606    5.9378   21.2366 N   0  0  0  0  0  0  0  0  0  0  0  0
    9.8932   11.6736   19.0677 O   0  0  0  0  0  0  0  0  0  0  0  0
    6.4470    4.5850   22.2321 C   0  0  0  0  0  0  0  0  0  0  0  0
    8.4619    6.9895   22.2968 C   0  0  0  0  0  0  0  0  0  0  0  0
   12.2747    7.5102   20.0420 C   0  0  0  0  0  0  0  0  0  0  0  0
   14.2544    6.2142   19.4191 C   0  0  0  0  0  0  0  0  0  0  0  0
   13.0695    6.3705   20.0375 N   0  0  0  0  0  0  0  0  0  0  0  0
    9.1913    8.0876   21.8361 N   0  0  0  0  0  0  0  0  0  0  0  0
   10.4739    9.4813   20.2889 C   0  0  0  0  0  0  0  0  0  0  0  0
    7.5551    7.1270   23.1200 O   0  0  0  0  0  0  0  0  0  0  0  0
  1 11  4  0
  1 21  4  0
  2  4  1  0
  2  8  1  0
  2 11  1  0
  3 10  4  0
  3 14  4  0
  4  5  1  0
  4 18  2  0
  6 12  1  0
  6 17  4  0
  6 23  4  0
  7  9  1  0
  7 13  4  0
  7 19  4  0
  9 20  1  0
 10 19  4  0
 11 25  4  0
 13 14  4  0
 15 16  4  0
 15 17  4  0
 15 21  4  0
 16 24  1  0
 16 25  4  0
 20 24  1  0
 20 26  2  0
 21 23  4  0
 22 23  1  0
M  END
$$$$

 Created by Python create_sdf_string function

 26 28  0  0  0  0  0  0  0  0999 V2000
   12.4616    8.6700   19.4180 N   0  0  0  0  0  0  0  0  0  0  0  0
   11.8329   10.8148   18.6769 N   0  0  0  0  0  0  0  0  0  0  0  0
    6.1021    2.5564   21.0678 C   0  0  0  0  0  0  0  0  0  0  0  0
   10.9097   11.8051   18.4804 C   0  0  0  0  0  0  0  0  0  0  0  0
   11.2280   12.9135   17.5669 C   0  0  0  0  0  0  0  0  0  0  0  0
   12.3782    5.4231   20.7777 C   0  0  0  0  0  0  0  0  0  0  0  0
    7.7365    4.6508   21.6987 C   0  0  0  0  0  0  0  0  0  0  0  0
   13.0186   11.0102   18.0020 C   0  0  0  0  0  0  0  0  0  0  0  0
    8.6628    5.7088   21.8871 N   0  0  0  0  0  0  0  0  0  0  0  0
    5.6516    3.5258   21.9140 C   0  0  0  0  0  0  0  0  0  0  0  0
   11.5863    9.6815   19.4539 C   0  0  0  0  0  0  0  0  0  0  0  0
   12.9648    4.1543   20.9205 C   0  0  0  0  0  0  0  0  0  0  0  0
    8.2089    3.6265   20.8929 C   0  0  0  0  0  0  0  0  0  0  0  0
    7.3827    2.5724   20.5432 C   0  0  0  0  0  0  0  0  0  0  0  0
   11.1529    7.2750   20.8025 C   0  0  0  0  0  0  0  0  0  0  0  0
   10.2573    8.3215   20.9827 C   0  0  0  0  0  0  0  0  0  0  0  0
   11.1606    5.9378   21.2366 N   0  0  0  0  0  0  0  0  0  0  0  0
    9.8932   11.6736   19.0677 O   0  0  0  0  0  0  0  0  0  0  0  0
    6.4470    4.5850   22.2321 C   0  0  0  0  0  0  0  0  0  0  0  0
    8.4619    6.9895   22.2968 C   0  0  0  0  0  0  0  0  0  0  0  0
   12.2747    7.5102   20.0420 C   0  0  0  0  0  0  0  0  0  0  0  0
   14.2544    6.2142   19.4191 C   0  0  0  0  0  0  0  0  0  0  0  0
   13.0695    6.3705   20.0375 N   0  0  0  0  0  0  0  0  0  0  0  0
    9.1913    8.0876   21.8361 N   0  0  0  0  0  0  0  0  0  0  0  0
   10.4739    9.4813   20.2889 C   0  0  0  0  0  0  0  0  0  0  0  0
    7.5551    7.1270   23.1200 O   0  0  0  0  0  0  0  0  0  0  0  0
  1 11  4  0
  1 21  4  0
  2  4  1  0
  2  8  1  0
  2 11  1  0
  3 10  4  0
  3 14  4  0
  4  5  1  0
  4 18  2  0
  6 12  1  0
  6 17  4  0
  6 23  4  0
  7  9  1  0
  7 13  4  0
  7 19  4  0
  9 20  1  0
 10 19  4  0
 11 25  4  0
 13 14  4  0
 15 16  4  0
 15 17  4  0
 15 21  4  0
 16 24  1  0
 16 25  4  0
 20 24  1  0
 20 26  2  0
 21 23  4  0
 22 23  1  0
M  END
$$$$

 Created by Python create_sdf_string function

 26 28  0  0  0  0  0  0  0  0999 V2000
   12.4616    8.6700   19.4180 N   0  0  0  0  0  0  0  0  0  0  0  0
   11.8329   10.8148   18.6769 N   0  0  0  0  0  0  0  0  0  0  0  0
    6.1021    2.5564   21.0678 C   0  0  0  0  0  0  0  0  0  0  0  0
   10.9097   11.8051   18.4804 C   0  0  0  0  0  0  0  0  0  0  0  0
   11.2280   12.9135   17.5669 C   0  0  0  0  0  0  0  0  0  0  0  0
   12.3782    5.4231   20.7777 C   0  0  0  0  0  0  0  0  0  0  0  0
    7.7365    4.6508   21.6987 C   0  0  0  0  0  0  0  0  0  0  0  0
   13.0186   11.0102   18.0020 C   0  0  0  0  0  0  0  0  0  0  0  0
    8.6628    5.7088   21.8871 N   0  0  0  0  0  0  0  0  0  0  0  0
    5.6516    3.5258   21.9140 C   0  0  0  0  0  0  0  0  0  0  0  0
   11.5863    9.6815   19.4539 C   0  0  0  0  0  0  0  0  0  0  0  0
   12.9648    4.1543   20.9205 C   0  0  0  0  0  0  0  0  0  0  0  0
    8.2089    3.6265   20.8929 C   0  0  0  0  0  0  0  0  0  0  0  0
    7.3827    2.5724   20.5432 C   0  0  0  0  0  0  0  0  0  0  0  0
   11.1529    7.2750   20.8025 C   0  0  0  0  0  0  0  0  0  0  0  0
   10.2573    8.3215   20.9827 C   0  0  0  0  0  0  0  0  0  0  0  0
   11.1606    5.9378   21.2366 N   0  0  0  0  0  0  0  0  0  0  0  0
    9.8932   11.6736   19.0677 O   0  0  0  0  0  0  0  0  0  0  0  0
    6.4470    4.5850   22.2321 C   0  0  0  0  0  0  0  0  0  0  0  0
    8.4619    6.9895   22.2968 C   0  0  0  0  0  0  0  0  0  0  0  0
   12.2747    7.5102   20.0420 C   0  0  0  0  0  0  0  0  0  0  0  0
   14.2544    6.2142   19.4191 C   0  0  0  0  0  0  0  0  0  0  0  0
   13.0695    6.3705   20.0375 N   0  0  0  0  0  0  0  0  0  0  0  0
    9.1913    8.0876   21.8361 N   0  0  0  0  0  0  0  0  0  0  0  0
   10.4739    9.4813   20.2889 C   0  0  0  0  0  0  0  0  0  0  0  0
    7.5551    7.1270   23.1200 O   0  0  0  0  0  0  0  0  0  0  0  0
  1 11  4  0
  1 21  4  0
  2  4  1  0
  2  8  1  0
  2 11  1  0
  3 10  4  0
  3 14  4  0
  4  5  1  0
  4 18  2  0
  6 12  1  0
  6 17  4  0
  6 23  4  0
  7  9  1  0
  7 13  4  0
  7 19  4  0
  9 20  1  0
 10 19  4  0
 11 25  4  0
 13 14  4  0
 15 16  4  0
 15 17  4  0
 15 21  4  0
 16 24  1  0
 16 25  4  0
 20 24  1  0
 20 26  2  0
 21 23  4  0
 22 23  1  0
M  END
$$$$

 Created by Python create_sdf_string function

 26 28  0  0  0  0  0  0  0  0999 V2000
   12.4616    8.6700   19.4180 N   0  0  0  0  0  0  0  0  0  0  0  0
   11.8329   10.8148   18.6769 N   0  0  0  0  0  0  0  0  0  0  0  0
    6.1021    2.5564   21.0678 C   0  0  0  0  0  0  0  0  0  0  0  0
   10.9097   11.8051   18.4804 C   0  0  0  0  0  0  0  0  0  0  0  0
   11.2280   12.9135   17.5669 C   0  0  0  0  0  0  0  0  0  0  0  0
   12.3782    5.4231   20.7777 C   0  0  0  0  0  0  0  0  0  0  0  0
    7.7365    4.6508   21.6987 C   0  0  0  0  0  0  0  0  0  0  0  0
   13.0186   11.0102   18.0020 C   0  0  0  0  0  0  0  0  0  0  0  0
    8.6628    5.7088   21.8871 N   0  0  0  0  0  0  0  0  0  0  0  0
    5.6516    3.5258   21.9140 C   0  0  0  0  0  0  0  0  0  0  0  0
   11.5863    9.6815   19.4539 C   0  0  0  0  0  0  0  0  0  0  0  0
   12.9648    4.1543   20.9205 C   0  0  0  0  0  0  0  0  0  0  0  0
    8.2089    3.6265   20.8929 C   0  0  0  0  0  0  0  0  0  0  0  0
    7.3827    2.5724   20.5432 C   0  0  0  0  0  0  0  0  0  0  0  0
   11.1529    7.2750   20.8025 C   0  0  0  0  0  0  0  0  0  0  0  0
   10.2573    8.3215   20.9827 C   0  0  0  0  0  0  0  0  0  0  0  0
   11.1606    5.9378   21.2366 N   0  0  0  0  0  0  0  0  0  0  0  0
    9.8932   11.6736   19.0677 O   0  0  0  0  0  0  0  0  0  0  0  0
    6.4470    4.5850   22.2321 C   0  0  0  0  0  0  0  0  0  0  0  0
    8.4619    6.9895   22.2968 C   0  0  0  0  0  0  0  0  0  0  0  0
   12.2747    7.5102   20.0420 C   0  0  0  0  0  0  0  0  0  0  0  0
   14.2544    6.2142   19.4191 C   0  0  0  0  0  0  0  0  0  0  0  0
   13.0695    6.3705   20.0375 N   0  0  0  0  0  0  0  0  0  0  0  0
    9.1913    8.0876   21.8361 N   0  0  0  0  0  0  0  0  0  0  0  0
   10.4739    9.4813   20.2889 C   0  0  0  0  0  0  0  0  0  0  0  0
    7.5551    7.1270   23.1200 O   0  0  0  0  0  0  0  0  0  0  0  0
  1 11  4  0
  1 21  4  0
  2  4  1  0
  2  8  1  0
  2 11  1  0
  3 10  4  0
  3 14  4  0
  4  5  1  0
  4 18  2  0
  6 12  1  0
  6 17  4  0
  6 23  4  0
  7  9  1  0
  7 13  4  0
  7 19  4  0
  9 20  1  0
 10 19  4  0
 11 25  4  0
 13 14  4  0
 15 16  4  0
 15 17  4  0
 15 21  4  0
 16 24  1  0
 16 25  4  0
 20 24  1  0
 20 26  2  0
 21 23  4  0
 22 23  1  0
M  END
$$$$

 Created by Python create_sdf_string function

 26 28  0  0  0  0  0  0  0  0999 V2000
   12.4616    8.6700   19.4180 N   0  0  0  0  0  0  0  0  0  0  0  0
   11.8329   10.8148   18.6769 N   0  0  0  0  0  0  0  0  0  0  0  0
    6.1021    2.5564   21.0678 C   0  0  0  0  0  0  0  0  0  0  0  0
   10.9097   11.8051   18.4804 C   0  0  0  0  0  0  0  0  0  0  0  0
   11.2280   12.9135   17.5669 C   0  0  0  0  0  0  0  0  0  0  0  0
   12.3782    5.4231   20.7777 C   0  0  0  0  0  0  0  0  0  0  0  0
    7.7365    4.6508   21.6987 C   0  0  0  0  0  0  0  0  0  0  0  0
   13.0186   11.0102   18.0020 C   0  0  0  0  0  0  0  0  0  0  0  0
    8.6628    5.7088   21.8871 N   0  0  0  0  0  0  0  0  0  0  0  0
    5.6516    3.5258   21.9140 C   0  0  0  0  0  0  0  0  0  0  0  0
   11.5863    9.6815   19.4539 C   0  0  0  0  0  0  0  0  0  0  0  0
   12.9648    4.1543   20.9205 C   0  0  0  0  0  0  0  0  0  0  0  0
    8.2089    3.6265   20.8929 C   0  0  0  0  0  0  0  0  0  0  0  0
    7.3827    2.5724   20.5432 C   0  0  0  0  0  0  0  0  0  0  0  0
   11.1529    7.2750   20.8025 C   0  0  0  0  0  0  0  0  0  0  0  0
   10.2573    8.3215   20.9827 C   0  0  0  0  0  0  0  0  0  0  0  0
   11.1606    5.9378   21.2366 N   0  0  0  0  0  0  0  0  0  0  0  0
    9.8932   11.6736   19.0677 O   0  0  0  0  0  0  0  0  0  0  0  0
    6.4470    4.5850   22.2321 C   0  0  0  0  0  0  0  0  0  0  0  0
    8.4619    6.9895   22.2968 C   0  0  0  0  0  0  0  0  0  0  0  0
   12.2747    7.5102   20.0420 C   0  0  0  0  0  0  0  0  0  0  0  0
   14.2544    6.2142   19.4191 C   0  0  0  0  0  0  0  0  0  0  0  0
   13.0695    6.3705   20.0375 N   0  0  0  0  0  0  0  0  0  0  0  0
    9.1913    8.0876   21.8361 N   0  0  0  0  0  0  0  0  0  0  0  0
   10.4739    9.4813   20.2889 C   0  0  0  0  0  0  0  0  0  0  0  0
    7.5551    7.1270   23.1200 O   0  0  0  0  0  0  0  0  0  0  0  0
  1 11  4  0
  1 21  4  0
  2  4  1  0
  2  8  1  0
  2 11  1  0
  3 10  4  0
  3 14  4  0
  4  5  1  0
  4 18  2  0
  6 12  1  0
  6 17  4  0
  6 23  4  0
  7  9  1  0
  7 13  4  0
  7 19  4  0
  9 20  1  0
 10 19  4  0
 11 25  4  0
 13 14  4  0
 15 16  4  0
 15 17  4  0
 15 21  4  0
 16 24  1  0
 16 25  4  0
 20 24  1  0
 20 26  2  0
 21 23  4  0
 22 23  1  0
M  END
$$$$

 Created by Python create_sdf_string function

 26 28  0  0  0  0  0  0  0  0999 V2000
   12.4616    8.6700   19.4180 N   0  0  0  0  0  0  0  0  0  0  0  0
   11.8329   10.8148   18.6769 N   0  0  0  0  0  0  0  0  0  0  0  0
    6.1021    2.5564   21.0678 C   0  0  0  0  0  0  0  0  0  0  0  0
   10.9097   11.8051   18.4804 C   0  0  0  0  0  0  0  0  0  0  0  0
   11.2280   12.9135   17.5669 C   0  0  0  0  0  0  0  0  0  0  0  0
   12.3782    5.4231   20.7777 C   0  0  0  0  0  0  0  0  0  0  0  0
    7.7365    4.6508   21.6987 C   0  0  0  0  0  0  0  0  0  0  0  0
   13.0186   11.0102   18.0020 C   0  0  0  0  0  0  0  0  0  0  0  0
    8.6628    5.7088   21.8871 N   0  0  0  0  0  0  0  0  0  0  0  0
    5.6516    3.5258   21.9140 C   0  0  0  0  0  0  0  0  0  0  0  0
   11.5863    9.6815   19.4539 C   0  0  0  0  0  0  0  0  0  0  0  0
   12.9648    4.1543   20.9205 C   0  0  0  0  0  0  0  0  0  0  0  0
    8.2089    3.6265   20.8929 C   0  0  0  0  0  0  0  0  0  0  0  0
    7.3827    2.5724   20.5432 C   0  0  0  0  0  0  0  0  0  0  0  0
   11.1529    7.2750   20.8025 C   0  0  0  0  0  0  0  0  0  0  0  0
   10.2573    8.3215   20.9827 C   0  0  0  0  0  0  0  0  0  0  0  0
   11.1606    5.9378   21.2366 N   0  0  0  0  0  0  0  0  0  0  0  0
    9.8932   11.6736   19.0677 O   0  0  0  0  0  0  0  0  0  0  0  0
    6.4470    4.5850   22.2321 C   0  0  0  0  0  0  0  0  0  0  0  0
    8.4619    6.9895   22.2968 C   0  0  0  0  0  0  0  0  0  0  0  0
   12.2747    7.5102   20.0420 C   0  0  0  0  0  0  0  0  0  0  0  0
   14.2544    6.2142   19.4191 C   0  0  0  0  0  0  0  0  0  0  0  0
   13.0695    6.3705   20.0375 N   0  0  0  0  0  0  0  0  0  0  0  0
    9.1913    8.0876   21.8361 N   0  0  0  0  0  0  0  0  0  0  0  0
   10.4739    9.4813   20.2889 C   0  0  0  0  0  0  0  0  0  0  0  0
    7.5551    7.1270   23.1200 O   0  0  0  0  0  0  0  0  0  0  0  0
  1 11  4  0
  1 21  4  0
  2  4  1  0
  2  8  1  0
  2 11  1  0
  3 10  4  0
  3 14  4  0
  4  5  1  0
  4 18  2  0
  6 12  1  0
  6 17  4  0
  6 23  4  0
  7  9  1  0
  7 13  4  0
  7 19  4  0
  9 20  1  0
 10 19  4  0
 11 25  4  0
 13 14  4  0
 15 16  4  0
 15 17  4  0
 15 21  4  0
 16 24  1  0
 16 25  4  0
 20 24  1  0
 20 26  2  0
 21 23  4  0
 22 23  1  0
M  END
$$$$

 Created by Python create_sdf_string function

 26 28  0  0  0  0  0  0  0  0999 V2000
   12.4616    8.6700   19.4180 N   0  0  0  0  0  0  0  0  0  0  0  0
   11.8329   10.8148   18.6769 N   0  0  0  0  0  0  0  0  0  0  0  0
    6.1021    2.5564   21.0678 C   0  0  0  0  0  0  0  0  0  0  0  0
   10.9097   11.8051   18.4804 C   0  0  0  0  0  0  0  0  0  0  0  0
   11.2280   12.9135   17.5669 C   0  0  0  0  0  0  0  0  0  0  0  0
   12.3782    5.4231   20.7777 C   0  0  0  0  0  0  0  0  0  0  0  0
    7.7365    4.6508   21.6987 C   0  0  0  0  0  0  0  0  0  0  0  0
   13.0186   11.0102   18.0020 C   0  0  0  0  0  0  0  0  0  0  0  0
    8.6628    5.7088   21.8871 N   0  0  0  0  0  0  0  0  0  0  0  0
    5.6516    3.5258   21.9140 C   0  0  0  0  0  0  0  0  0  0  0  0
   11.5863    9.6815   19.4539 C   0  0  0  0  0  0  0  0  0  0  0  0
   12.9648    4.1543   20.9205 C   0  0  0  0  0  0  0  0  0  0  0  0
    8.2089    3.6265   20.8929 C   0  0  0  0  0  0  0  0  0  0  0  0
    7.3827    2.5724   20.5432 C   0  0  0  0  0  0  0  0  0  0  0  0
   11.1529    7.2750   20.8025 C   0  0  0  0  0  0  0  0  0  0  0  0
   10.2573    8.3215   20.9827 C   0  0  0  0  0  0  0  0  0  0  0  0
   11.1606    5.9378   21.2366 N   0  0  0  0  0  0  0  0  0  0  0  0
    9.8932   11.6736   19.0677 O   0  0  0  0  0  0  0  0  0  0  0  0
    6.4470    4.5850   22.2321 C   0  0  0  0  0  0  0  0  0  0  0  0
    8.4619    6.9895   22.2968 C   0  0  0  0  0  0  0  0  0  0  0  0
   12.2747    7.5102   20.0420 C   0  0  0  0  0  0  0  0  0  0  0  0
   14.2544    6.2142   19.4191 C   0  0  0  0  0  0  0  0  0  0  0  0
   13.0695    6.3705   20.0375 N   0  0  0  0  0  0  0  0  0  0  0  0
    9.1913    8.0876   21.8361 N   0  0  0  0  0  0  0  0  0  0  0  0
   10.4739    9.4813   20.2889 C   0  0  0  0  0  0  0  0  0  0  0  0
    7.5551    7.1270   23.1200 O   0  0  0  0  0  0  0  0  0  0  0  0
  1 11  4  0
  1 21  4  0
  2  4  1  0
  2  8  1  0
  2 11  1  0
  3 10  4  0
  3 14  4  0
  4  5  1  0
  4 18  2  0
  6 12  1  0
  6 17  4  0
  6 23  4  0
  7  9  1  0
  7 13  4  0
  7 19  4  0
  9 20  1  0
 10 19  4  0
 11 25  4  0
 13 14  4  0
 15 16  4  0
 15 17  4  0
 15 21  4  0
 16 24  1  0
 16 25  4  0
 20 24  1  0
 20 26  2  0
 21 23  4  0
 22 23  1  0
M  END
$$$$

 Created by Python create_sdf_string function

 26 28  0  0  0  0  0  0  0  0999 V2000
   12.4616    8.6700   19.4180 N   0  0  0  0  0  0  0  0  0  0  0  0
   11.8329   10.8148   18.6769 N   0  0  0  0  0  0  0  0  0  0  0  0
    6.1021    2.5564   21.0678 C   0  0  0  0  0  0  0  0  0  0  0  0
   10.9097   11.8051   18.4804 C   0  0  0  0  0  0  0  0  0  0  0  0
   11.2280   12.9135   17.5669 C   0  0  0  0  0  0  0  0  0  0  0  0
   12.3782    5.4231   20.7777 C   0  0  0  0  0  0  0  0  0  0  0  0
    7.7365    4.6508   21.6987 C   0  0  0  0  0  0  0  0  0  0  0  0
   13.0186   11.0102   18.0020 C   0  0  0  0  0  0  0  0  0  0  0  0
    8.6628    5.7088   21.8871 N   0  0  0  0  0  0  0  0  0  0  0  0
    5.6516    3.5258   21.9140 C   0  0  0  0  0  0  0  0  0  0  0  0
   11.5863    9.6815   19.4539 C   0  0  0  0  0  0  0  0  0  0  0  0
   12.9648    4.1543   20.9205 C   0  0  0  0  0  0  0  0  0  0  0  0
    8.2089    3.6265   20.8929 C   0  0  0  0  0  0  0  0  0  0  0  0
    7.3827    2.5724   20.5432 C   0  0  0  0  0  0  0  0  0  0  0  0
   11.1529    7.2750   20.8025 C   0  0  0  0  0  0  0  0  0  0  0  0
   10.2573    8.3215   20.9827 C   0  0  0  0  0  0  0  0  0  0  0  0
   11.1606    5.9378   21.2366 N   0  0  0  0  0  0  0  0  0  0  0  0
    9.8932   11.6736   19.0677 O   0  0  0  0  0  0  0  0  0  0  0  0
    6.4470    4.5850   22.2321 C   0  0  0  0  0  0  0  0  0  0  0  0
    8.4619    6.9895   22.2968 C   0  0  0  0  0  0  0  0  0  0  0  0
   12.2747    7.5102   20.0420 C   0  0  0  0  0  0  0  0  0  0  0  0
   14.2544    6.2142   19.4191 C   0  0  0  0  0  0  0  0  0  0  0  0
   13.0695    6.3705   20.0375 N   0  0  0  0  0  0  0  0  0  0  0  0
    9.1913    8.0876   21.8361 N   0  0  0  0  0  0  0  0  0  0  0  0
   10.4739    9.4813   20.2889 C   0  0  0  0  0  0  0  0  0  0  0  0
    7.5551    7.1270   23.1200 O   0  0  0  0  0  0  0  0  0  0  0  0
  1 11  4  0
  1 21  4  0
  2  4  1  0
  2  8  1  0
  2 11  1  0
  3 10  4  0
  3 14  4  0
  4  5  1  0
  4 18  2  0
  6 12  1  0
  6 17  4  0
  6 23  4  0
  7  9  1  0
  7 13  4  0
  7 19  4  0
  9 20  1  0
 10 19  4  0
 11 25  4  0
 13 14  4  0
 15 16  4  0
 15 17  4  0
 15 21  4  0
 16 24  1  0
 16 25  4  0
 20 24  1  0
 20 26  2  0
 21 23  4  0
 22 23  1  0
M  END
$$$$

 Created by Python create_sdf_string function

 26 28  0  0  0  0  0  0  0  0999 V2000
   12.4616    8.6700   19.4180 N   0  0  0  0  0  0  0  0  0  0  0  0
   11.8329   10.8148   18.6769 N   0  0  0  0  0  0  0  0  0  0  0  0
    6.1021    2.5564   21.0678 C   0  0  0  0  0  0  0  0  0  0  0  0
   10.9097   11.8051   18.4804 C   0  0  0  0  0  0  0  0  0  0  0  0
   11.2280   12.9135   17.5669 C   0  0  0  0  0  0  0  0  0  0  0  0
   12.3782    5.4231   20.7777 C   0  0  0  0  0  0  0  0  0  0  0  0
    7.7365    4.6508   21.6987 C   0  0  0  0  0  0  0  0  0  0  0  0
   13.0186   11.0102   18.0020 C   0  0  0  0  0  0  0  0  0  0  0  0
    8.6628    5.7088   21.8871 N   0  0  0  0  0  0  0  0  0  0  0  0
    5.6516    3.5258   21.9140 C   0  0  0  0  0  0  0  0  0  0  0  0
   11.5863    9.6815   19.4539 C   0  0  0  0  0  0  0  0  0  0  0  0
   12.9648    4.1543   20.9205 C   0  0  0  0  0  0  0  0  0  0  0  0
    8.2089    3.6265   20.8929 C   0  0  0  0  0  0  0  0  0  0  0  0
    7.3827    2.5724   20.5432 C   0  0  0  0  0  0  0  0  0  0  0  0
   11.1529    7.2750   20.8025 C   0  0  0  0  0  0  0  0  0  0  0  0
   10.2573    8.3215   20.9827 C   0  0  0  0  0  0  0  0  0  0  0  0
   11.1606    5.9378   21.2366 N   0  0  0  0  0  0  0  0  0  0  0  0
    9.8932   11.6736   19.0677 O   0  0  0  0  0  0  0  0  0  0  0  0
    6.4470    4.5850   22.2321 C   0  0  0  0  0  0  0  0  0  0  0  0
    8.4619    6.9895   22.2968 C   0  0  0  0  0  0  0  0  0  0  0  0
   12.2747    7.5102   20.0420 C   0  0  0  0  0  0  0  0  0  0  0  0
   14.2544    6.2142   19.4191 C   0  0  0  0  0  0  0  0  0  0  0  0
   13.0695    6.3705   20.0375 N   0  0  0  0  0  0  0  0  0  0  0  0
    9.1913    8.0876   21.8361 N   0  0  0  0  0  0  0  0  0  0  0  0
   10.4739    9.4813   20.2889 C   0  0  0  0  0  0  0  0  0  0  0  0
    7.5551    7.1270   23.1200 O   0  0  0  0  0  0  0  0  0  0  0  0
  1 11  4  0
  1 21  4  0
  2  4  1  0
  2  8  1  0
  2 11  1  0
  3 10  4  0
  3 14  4  0
  4  5  1  0
  4 18  2  0
  6 12  1  0
  6 17  4  0
  6 23  4  0
  7  9  1  0
  7 13  4  0
  7 19  4  0
  9 20  1  0
 10 19  4  0
 11 25  4  0
 13 14  4  0
 15 16  4  0
 15 17  4  0
 15 21  4  0
 16 24  1  0
 16 25  4  0
 20 24  1  0
 20 26  2  0
 21 23  4  0
 22 23  1  0
M  END
$$$$

 Created by Python create_sdf_string function

 26 28  0  0  0  0  0  0  0  0999 V2000
   12.4616    8.6700   19.4180 N   0  0  0  0  0  0  0  0  0  0  0  0
   11.8329   10.8148   18.6769 N   0  0  0  0  0  0  0  0  0  0  0  0
    6.1021    2.5564   21.0678 C   0  0  0  0  0  0  0  0  0  0  0  0
   10.9097   11.8051   18.4804 C   0  0  0  0  0  0  0  0  0  0  0  0
   11.2280   12.9135   17.5669 C   0  0  0  0  0  0  0  0  0  0  0  0
   12.3782    5.4231   20.7777 C   0  0  0  0  0  0  0  0  0  0  0  0
    7.7365    4.6508   21.6987 C   0  0  0  0  0  0  0  0  0  0  0  0
   13.0186   11.0102   18.0020 C   0  0  0  0  0  0  0  0  0  0  0  0
    8.6628    5.7088   21.8871 N   0  0  0  0  0  0  0  0  0  0  0  0
    5.6516    3.5258   21.9140 C   0  0  0  0  0  0  0  0  0  0  0  0
   11.5863    9.6815   19.4539 C   0  0  0  0  0  0  0  0  0  0  0  0
   12.9648    4.1543   20.9205 C   0  0  0  0  0  0  0  0  0  0  0  0
    8.2089    3.6265   20.8929 C   0  0  0  0  0  0  0  0  0  0  0  0
    7.3827    2.5724   20.5432 C   0  0  0  0  0  0  0  0  0  0  0  0
   11.1529    7.2750   20.8025 C   0  0  0  0  0  0  0  0  0  0  0  0
   10.2573    8.3215   20.9827 C   0  0  0  0  0  0  0  0  0  0  0  0
   11.1606    5.9378   21.2366 N   0  0  0  0  0  0  0  0  0  0  0  0
    9.8932   11.6736   19.0677 O   0  0  0  0  0  0  0  0  0  0  0  0
    6.4470    4.5850   22.2321 C   0  0  0  0  0  0  0  0  0  0  0  0
    8.4619    6.9895   22.2968 C   0  0  0  0  0  0  0  0  0  0  0  0
   12.2747    7.5102   20.0420 C   0  0  0  0  0  0  0  0  0  0  0  0
   14.2544    6.2142   19.4191 C   0  0  0  0  0  0  0  0  0  0  0  0
   13.0695    6.3705   20.0375 N   0  0  0  0  0  0  0  0  0  0  0  0
    9.1913    8.0876   21.8361 N   0  0  0  0  0  0  0  0  0  0  0  0
   10.4739    9.4813   20.2889 C   0  0  0  0  0  0  0  0  0  0  0  0
    7.5551    7.1270   23.1200 O   0  0  0  0  0  0  0  0  0  0  0  0
  1 11  4  0
  1 21  4  0
  2  4  1  0
  2  8  1  0
  2 11  1  0
  3 10  4  0
  3 14  4  0
  4  5  1  0
  4 18  2  0
  6 12  1  0
  6 17  4  0
  6 23  4  0
  7  9  1  0
  7 13  4  0
  7 19  4  0
  9 20  1  0
 10 19  4  0
 11 25  4  0
 13 14  4  0
 15 16  4  0
 15 17  4  0
 15 21  4  0
 16 24  1  0
 16 25  4  0
 20 24  1  0
 20 26  2  0
 21 23  4  0
 22 23  1  0
M  END
$$$$

 Created by Python create_sdf_string function

 26 28  0  0  0  0  0  0  0  0999 V2000
   12.4616    8.6700   19.4180 N   0  0  0  0  0  0  0  0  0  0  0  0
   11.8329   10.8148   18.6769 N   0  0  0  0  0  0  0  0  0  0  0  0
    6.1021    2.5564   21.0678 C   0  0  0  0  0  0  0  0  0  0  0  0
   10.9097   11.8051   18.4804 C   0  0  0  0  0  0  0  0  0  0  0  0
   11.2280   12.9135   17.5669 C   0  0  0  0  0  0  0  0  0  0  0  0
   12.3782    5.4231   20.7777 C   0  0  0  0  0  0  0  0  0  0  0  0
    7.7365    4.6508   21.6987 C   0  0  0  0  0  0  0  0  0  0  0  0
   13.0186   11.0102   18.0020 C   0  0  0  0  0  0  0  0  0  0  0  0
    8.6628    5.7088   21.8871 N   0  0  0  0  0  0  0  0  0  0  0  0
    5.6516    3.5258   21.9140 C   0  0  0  0  0  0  0  0  0  0  0  0
   11.5863    9.6815   19.4539 C   0  0  0  0  0  0  0  0  0  0  0  0
   12.9648    4.1543   20.9205 C   0  0  0  0  0  0  0  0  0  0  0  0
    8.2089    3.6265   20.8929 C   0  0  0  0  0  0  0  0  0  0  0  0
    7.3827    2.5724   20.5432 C   0  0  0  0  0  0  0  0  0  0  0  0
   11.1529    7.2750   20.8025 C   0  0  0  0  0  0  0  0  0  0  0  0
   10.2573    8.3215   20.9827 C   0  0  0  0  0  0  0  0  0  0  0  0
   11.1606    5.9378   21.2366 N   0  0  0  0  0  0  0  0  0  0  0  0
    9.8932   11.6736   19.0677 O   0  0  0  0  0  0  0  0  0  0  0  0
    6.4470    4.5850   22.2321 C   0  0  0  0  0  0  0  0  0  0  0  0
    8.4619    6.9895   22.2968 C   0  0  0  0  0  0  0  0  0  0  0  0
   12.2747    7.5102   20.0420 C   0  0  0  0  0  0  0  0  0  0  0  0
   14.2544    6.2142   19.4191 C   0  0  0  0  0  0  0  0  0  0  0  0
   13.0695    6.3705   20.0375 N   0  0  0  0  0  0  0  0  0  0  0  0
    9.1913    8.0876   21.8361 N   0  0  0  0  0  0  0  0  0  0  0  0
   10.4739    9.4813   20.2889 C   0  0  0  0  0  0  0  0  0  0  0  0
    7.5551    7.1270   23.1200 O   0  0  0  0  0  0  0  0  0  0  0  0
  1 11  4  0
  1 21  4  0
  2  4  1  0
  2  8  1  0
  2 11  1  0
  3 10  4  0
  3 14  4  0
  4  5  1  0
  4 18  2  0
  6 12  1  0
  6 17  4  0
  6 23  4  0
  7  9  1  0
  7 13  4  0
  7 19  4  0
  9 20  1  0
 10 19  4  0
 11 25  4  0
 13 14  4  0
 15 16  4  0
 15 17  4  0
 15 21  4  0
 16 24  1  0
 16 25  4  0
 20 24  1  0
 20 26  2  0
 21 23  4  0
 22 23  1  0
M  END
$$$$

 Created by Python create_sdf_string function

 26 28  0  0  0  0  0  0  0  0999 V2000
   12.4616    8.6700   19.4180 N   0  0  0  0  0  0  0  0  0  0  0  0
   11.8329   10.8148   18.6769 N   0  0  0  0  0  0  0  0  0  0  0  0
    6.1021    2.5564   21.0678 C   0  0  0  0  0  0  0  0  0  0  0  0
   10.9097   11.8051   18.4804 C   0  0  0  0  0  0  0  0  0  0  0  0
   11.2280   12.9135   17.5669 C   0  0  0  0  0  0  0  0  0  0  0  0
   12.3782    5.4231   20.7777 C   0  0  0  0  0  0  0  0  0  0  0  0
    7.7365    4.6508   21.6987 C   0  0  0  0  0  0  0  0  0  0  0  0
   13.0186   11.0102   18.0020 C   0  0  0  0  0  0  0  0  0  0  0  0
    8.6628    5.7088   21.8871 N   0  0  0  0  0  0  0  0  0  0  0  0
    5.6516    3.5258   21.9140 C   0  0  0  0  0  0  0  0  0  0  0  0
   11.5863    9.6815   19.4539 C   0  0  0  0  0  0  0  0  0  0  0  0
   12.9648    4.1543   20.9205 C   0  0  0  0  0  0  0  0  0  0  0  0
    8.2089    3.6265   20.8929 C   0  0  0  0  0  0  0  0  0  0  0  0
    7.3827    2.5724   20.5432 C   0  0  0  0  0  0  0  0  0  0  0  0
   11.1529    7.2750   20.8025 C   0  0  0  0  0  0  0  0  0  0  0  0
   10.2573    8.3215   20.9827 C   0  0  0  0  0  0  0  0  0  0  0  0
   11.1606    5.9378   21.2366 N   0  0  0  0  0  0  0  0  0  0  0  0
    9.8932   11.6736   19.0677 O   0  0  0  0  0  0  0  0  0  0  0  0
    6.4470    4.5850   22.2321 C   0  0  0  0  0  0  0  0  0  0  0  0
    8.4619    6.9895   22.2968 C   0  0  0  0  0  0  0  0  0  0  0  0
   12.2747    7.5102   20.0420 C   0  0  0  0  0  0  0  0  0  0  0  0
   14.2544    6.2142   19.4191 C   0  0  0  0  0  0  0  0  0  0  0  0
   13.0695    6.3705   20.0375 N   0  0  0  0  0  0  0  0  0  0  0  0
    9.1913    8.0876   21.8361 N   0  0  0  0  0  0  0  0  0  0  0  0
   10.4739    9.4813   20.2889 C   0  0  0  0  0  0  0  0  0  0  0  0
    7.5551    7.1270   23.1200 O   0  0  0  0  0  0  0  0  0  0  0  0
  1 11  4  0
  1 21  4  0
  2  4  1  0
  2  8  1  0
  2 11  1  0
  3 10  4  0
  3 14  4  0
  4  5  1  0
  4 18  2  0
  6 12  1  0
  6 17  4  0
  6 23  4  0
  7  9  1  0
  7 13  4  0
  7 19  4  0
  9 20  1  0
 10 19  4  0
 11 25  4  0
 13 14  4  0
 15 16  4  0
 15 17  4  0
 15 21  4  0
 16 24  1  0
 16 25  4  0
 20 24  1  0
 20 26  2  0
 21 23  4  0
 22 23  1  0
M  END
$$$$

 Created by Python create_sdf_string function

 26 28  0  0  0  0  0  0  0  0999 V2000
   12.4616    8.6700   19.4180 N   0  0  0  0  0  0  0  0  0  0  0  0
   11.8329   10.8148   18.6769 N   0  0  0  0  0  0  0  0  0  0  0  0
    6.1021    2.5564   21.0678 C   0  0  0  0  0  0  0  0  0  0  0  0
   10.9097   11.8051   18.4804 C   0  0  0  0  0  0  0  0  0  0  0  0
   11.2280   12.9135   17.5669 C   0  0  0  0  0  0  0  0  0  0  0  0
   12.3782    5.4231   20.7777 C   0  0  0  0  0  0  0  0  0  0  0  0
    7.7365    4.6508   21.6987 C   0  0  0  0  0  0  0  0  0  0  0  0
   13.0186   11.0102   18.0020 C   0  0  0  0  0  0  0  0  0  0  0  0
    8.6628    5.7088   21.8871 N   0  0  0  0  0  0  0  0  0  0  0  0
    5.6516    3.5258   21.9140 C   0  0  0  0  0  0  0  0  0  0  0  0
   11.5863    9.6815   19.4539 C   0  0  0  0  0  0  0  0  0  0  0  0
   12.9648    4.1543   20.9205 C   0  0  0  0  0  0  0  0  0  0  0  0
    8.2089    3.6265   20.8929 C   0  0  0  0  0  0  0  0  0  0  0  0
    7.3827    2.5724   20.5432 C   0  0  0  0  0  0  0  0  0  0  0  0
   11.1529    7.2750   20.8025 C   0  0  0  0  0  0  0  0  0  0  0  0
   10.2573    8.3215   20.9827 C   0  0  0  0  0  0  0  0  0  0  0  0
   11.1606    5.9378   21.2366 N   0  0  0  0  0  0  0  0  0  0  0  0
    9.8932   11.6736   19.0677 O   0  0  0  0  0  0  0  0  0  0  0  0
    6.4470    4.5850   22.2321 C   0  0  0  0  0  0  0  0  0  0  0  0
    8.4619    6.9895   22.2968 C   0  0  0  0  0  0  0  0  0  0  0  0
   12.2747    7.5102   20.0420 C   0  0  0  0  0  0  0  0  0  0  0  0
   14.2544    6.2142   19.4191 C   0  0  0  0  0  0  0  0  0  0  0  0
   13.0695    6.3705   20.0375 N   0  0  0  0  0  0  0  0  0  0  0  0
    9.1913    8.0876   21.8361 N   0  0  0  0  0  0  0  0  0  0  0  0
   10.4739    9.4813   20.2889 C   0  0  0  0  0  0  0  0  0  0  0  0
    7.5551    7.1270   23.1200 O   0  0  0  0  0  0  0  0  0  0  0  0
  1 11  4  0
  1 21  4  0
  2  4  1  0
  2  8  1  0
  2 11  1  0
  3 10  4  0
  3 14  4  0
  4  5  1  0
  4 18  2  0
  6 12  1  0
  6 17  4  0
  6 23  4  0
  7  9  1  0
  7 13  4  0
  7 19  4  0
  9 20  1  0
 10 19  4  0
 11 25  4  0
 13 14  4  0
 15 16  4  0
 15 17  4  0
 15 21  4  0
 16 24  1  0
 16 25  4  0
 20 24  1  0
 20 26  2  0
 21 23  4  0
 22 23  1  0
M  END
$$$$

 Created by Python create_sdf_string function

 26 28  0  0  0  0  0  0  0  0999 V2000
   12.4616    8.6700   19.4180 N   0  0  0  0  0  0  0  0  0  0  0  0
   11.8329   10.8148   18.6769 N   0  0  0  0  0  0  0  0  0  0  0  0
    6.1021    2.5564   21.0678 C   0  0  0  0  0  0  0  0  0  0  0  0
   10.9097   11.8051   18.4804 C   0  0  0  0  0  0  0  0  0  0  0  0
   11.2280   12.9135   17.5669 C   0  0  0  0  0  0  0  0  0  0  0  0
   12.3782    5.4231   20.7777 C   0  0  0  0  0  0  0  0  0  0  0  0
    7.7365    4.6508   21.6987 C   0  0  0  0  0  0  0  0  0  0  0  0
   13.0186   11.0102   18.0020 C   0  0  0  0  0  0  0  0  0  0  0  0
    8.6628    5.7088   21.8871 N   0  0  0  0  0  0  0  0  0  0  0  0
    5.6516    3.5258   21.9140 C   0  0  0  0  0  0  0  0  0  0  0  0
   11.5863    9.6815   19.4539 C   0  0  0  0  0  0  0  0  0  0  0  0
   12.9648    4.1543   20.9205 C   0  0  0  0  0  0  0  0  0  0  0  0
    8.2089    3.6265   20.8929 C   0  0  0  0  0  0  0  0  0  0  0  0
    7.3827    2.5724   20.5432 C   0  0  0  0  0  0  0  0  0  0  0  0
   11.1529    7.2750   20.8025 C   0  0  0  0  0  0  0  0  0  0  0  0
   10.2573    8.3215   20.9827 C   0  0  0  0  0  0  0  0  0  0  0  0
   11.1606    5.9378   21.2366 N   0  0  0  0  0  0  0  0  0  0  0  0
    9.8932   11.6736   19.0677 O   0  0  0  0  0  0  0  0  0  0  0  0
    6.4470    4.5850   22.2321 C   0  0  0  0  0  0  0  0  0  0  0  0
    8.4619    6.9895   22.2968 C   0  0  0  0  0  0  0  0  0  0  0  0
   12.2747    7.5102   20.0420 C   0  0  0  0  0  0  0  0  0  0  0  0
   14.2544    6.2142   19.4191 C   0  0  0  0  0  0  0  0  0  0  0  0
   13.0695    6.3705   20.0375 N   0  0  0  0  0  0  0  0  0  0  0  0
    9.1913    8.0876   21.8361 N   0  0  0  0  0  0  0  0  0  0  0  0
   10.4739    9.4813   20.2889 C   0  0  0  0  0  0  0  0  0  0  0  0
    7.5551    7.1270   23.1200 O   0  0  0  0  0  0  0  0  0  0  0  0
  1 11  4  0
  1 21  4  0
  2  4  1  0
  2  8  1  0
  2 11  1  0
  3 10  4  0
  3 14  4  0
  4  5  1  0
  4 18  2  0
  6 12  1  0
  6 17  4  0
  6 23  4  0
  7  9  1  0
  7 13  4  0
  7 19  4  0
  9 20  1  0
 10 19  4  0
 11 25  4  0
 13 14  4  0
 15 16  4  0
 15 17  4  0
 15 21  4  0
 16 24  1  0
 16 25  4  0
 20 24  1  0
 20 26  2  0
 21 23  4  0
 22 23  1  0
M  END
$$$$

 Created by Python create_sdf_string function

 26 28  0  0  0  0  0  0  0  0999 V2000
   12.4616    8.6700   19.4180 N   0  0  0  0  0  0  0  0  0  0  0  0
   11.8329   10.8148   18.6769 N   0  0  0  0  0  0  0  0  0  0  0  0
    6.1021    2.5564   21.0678 C   0  0  0  0  0  0  0  0  0  0  0  0
   10.9097   11.8051   18.4804 C   0  0  0  0  0  0  0  0  0  0  0  0
   11.2280   12.9135   17.5669 C   0  0  0  0  0  0  0  0  0  0  0  0
   12.3782    5.4231   20.7777 C   0  0  0  0  0  0  0  0  0  0  0  0
    7.7365    4.6508   21.6987 C   0  0  0  0  0  0  0  0  0  0  0  0
   13.0186   11.0102   18.0020 C   0  0  0  0  0  0  0  0  0  0  0  0
    8.6628    5.7088   21.8871 N   0  0  0  0  0  0  0  0  0  0  0  0
    5.6516    3.5258   21.9140 C   0  0  0  0  0  0  0  0  0  0  0  0
   11.5863    9.6815   19.4539 C   0  0  0  0  0  0  0  0  0  0  0  0
   12.9648    4.1543   20.9205 C   0  0  0  0  0  0  0  0  0  0  0  0
    8.2089    3.6265   20.8929 C   0  0  0  0  0  0  0  0  0  0  0  0
    7.3827    2.5724   20.5432 C   0  0  0  0  0  0  0  0  0  0  0  0
   11.1529    7.2750   20.8025 C   0  0  0  0  0  0  0  0  0  0  0  0
   10.2573    8.3215   20.9827 C   0  0  0  0  0  0  0  0  0  0  0  0
   11.1606    5.9378   21.2366 N   0  0  0  0  0  0  0  0  0  0  0  0
    9.8932   11.6736   19.0677 O   0  0  0  0  0  0  0  0  0  0  0  0
    6.4470    4.5850   22.2321 C   0  0  0  0  0  0  0  0  0  0  0  0
    8.4619    6.9895   22.2968 C   0  0  0  0  0  0  0  0  0  0  0  0
   12.2747    7.5102   20.0420 C   0  0  0  0  0  0  0  0  0  0  0  0
   14.2544    6.2142   19.4191 C   0  0  0  0  0  0  0  0  0  0  0  0
   13.0695    6.3705   20.0375 N   0  0  0  0  0  0  0  0  0  0  0  0
    9.1913    8.0876   21.8361 N   0  0  0  0  0  0  0  0  0  0  0  0
   10.4739    9.4813   20.2889 C   0  0  0  0  0  0  0  0  0  0  0  0
    7.5551    7.1270   23.1200 O   0  0  0  0  0  0  0  0  0  0  0  0
  1 11  4  0
  1 21  4  0
  2  4  1  0
  2  8  1  0
  2 11  1  0
  3 10  4  0
  3 14  4  0
  4  5  1  0
  4 18  2  0
  6 12  1  0
  6 17  4  0
  6 23  4  0
  7  9  1  0
  7 13  4  0
  7 19  4  0
  9 20  1  0
 10 19  4  0
 11 25  4  0
 13 14  4  0
 15 16  4  0
 15 17  4  0
 15 21  4  0
 16 24  1  0
 16 25  4  0
 20 24  1  0
 20 26  2  0
 21 23  4  0
 22 23  1  0
M  END
$$$$

 Created by Python create_sdf_string function

 26 28  0  0  0  0  0  0  0  0999 V2000
   12.4616    8.6700   19.4180 N   0  0  0  0  0  0  0  0  0  0  0  0
   11.8329   10.8148   18.6769 N   0  0  0  0  0  0  0  0  0  0  0  0
    6.1021    2.5564   21.0678 C   0  0  0  0  0  0  0  0  0  0  0  0
   10.9097   11.8051   18.4804 C   0  0  0  0  0  0  0  0  0  0  0  0
   11.2280   12.9135   17.5669 C   0  0  0  0  0  0  0  0  0  0  0  0
   12.3782    5.4231   20.7777 C   0  0  0  0  0  0  0  0  0  0  0  0
    7.7365    4.6508   21.6987 C   0  0  0  0  0  0  0  0  0  0  0  0
   13.0186   11.0102   18.0020 C   0  0  0  0  0  0  0  0  0  0  0  0
    8.6628    5.7088   21.8871 N   0  0  0  0  0  0  0  0  0  0  0  0
    5.6516    3.5258   21.9140 C   0  0  0  0  0  0  0  0  0  0  0  0
   11.5863    9.6815   19.4539 C   0  0  0  0  0  0  0  0  0  0  0  0
   12.9648    4.1543   20.9205 C   0  0  0  0  0  0  0  0  0  0  0  0
    8.2089    3.6265   20.8929 C   0  0  0  0  0  0  0  0  0  0  0  0
    7.3827    2.5724   20.5432 C   0  0  0  0  0  0  0  0  0  0  0  0
   11.1529    7.2750   20.8025 C   0  0  0  0  0  0  0  0  0  0  0  0
   10.2573    8.3215   20.9827 C   0  0  0  0  0  0  0  0  0  0  0  0
   11.1606    5.9378   21.2366 N   0  0  0  0  0  0  0  0  0  0  0  0
    9.8932   11.6736   19.0677 O   0  0  0  0  0  0  0  0  0  0  0  0
    6.4470    4.5850   22.2321 C   0  0  0  0  0  0  0  0  0  0  0  0
    8.4619    6.9895   22.2968 C   0  0  0  0  0  0  0  0  0  0  0  0
   12.2747    7.5102   20.0420 C   0  0  0  0  0  0  0  0  0  0  0  0
   14.2544    6.2142   19.4191 C   0  0  0  0  0  0  0  0  0  0  0  0
   13.0695    6.3705   20.0375 N   0  0  0  0  0  0  0  0  0  0  0  0
    9.1913    8.0876   21.8361 N   0  0  0  0  0  0  0  0  0  0  0  0
   10.4739    9.4813   20.2889 C   0  0  0  0  0  0  0  0  0  0  0  0
    7.5551    7.1270   23.1200 O   0  0  0  0  0  0  0  0  0  0  0  0
  1 11  4  0
  1 21  4  0
  2  4  1  0
  2  8  1  0
  2 11  1  0
  3 10  4  0
  3 14  4  0
  4  5  1  0
  4 18  2  0
  6 12  1  0
  6 17  4  0
  6 23  4  0
  7  9  1  0
  7 13  4  0
  7 19  4  0
  9 20  1  0
 10 19  4  0
 11 25  4  0
 13 14  4  0
 15 16  4  0
 15 17  4  0
 15 21  4  0
 16 24  1  0
 16 25  4  0
 20 24  1  0
 20 26  2  0
 21 23  4  0
 22 23  1  0
M  END
$$$$

 Created by Python create_sdf_string function

 26 28  0  0  0  0  0  0  0  0999 V2000
   12.4616    8.6700   19.4180 N   0  0  0  0  0  0  0  0  0  0  0  0
   11.8329   10.8148   18.6769 N   0  0  0  0  0  0  0  0  0  0  0  0
    6.1021    2.5564   21.0678 C   0  0  0  0  0  0  0  0  0  0  0  0
   10.9097   11.8051   18.4804 C   0  0  0  0  0  0  0  0  0  0  0  0
   11.2280   12.9135   17.5669 C   0  0  0  0  0  0  0  0  0  0  0  0
   12.3782    5.4231   20.7777 C   0  0  0  0  0  0  0  0  0  0  0  0
    7.7365    4.6508   21.6987 C   0  0  0  0  0  0  0  0  0  0  0  0
   13.0186   11.0102   18.0020 C   0  0  0  0  0  0  0  0  0  0  0  0
    8.6628    5.7088   21.8871 N   0  0  0  0  0  0  0  0  0  0  0  0
    5.6516    3.5258   21.9140 C   0  0  0  0  0  0  0  0  0  0  0  0
   11.5863    9.6815   19.4539 C   0  0  0  0  0  0  0  0  0  0  0  0
   12.9648    4.1543   20.9205 C   0  0  0  0  0  0  0  0  0  0  0  0
    8.2089    3.6265   20.8929 C   0  0  0  0  0  0  0  0  0  0  0  0
    7.3827    2.5724   20.5432 C   0  0  0  0  0  0  0  0  0  0  0  0
   11.1529    7.2750   20.8025 C   0  0  0  0  0  0  0  0  0  0  0  0
   10.2573    8.3215   20.9827 C   0  0  0  0  0  0  0  0  0  0  0  0
   11.1606    5.9378   21.2366 N   0  0  0  0  0  0  0  0  0  0  0  0
    9.8932   11.6736   19.0677 O   0  0  0  0  0  0  0  0  0  0  0  0
    6.4470    4.5850   22.2321 C   0  0  0  0  0  0  0  0  0  0  0  0
    8.4619    6.9895   22.2968 C   0  0  0  0  0  0  0  0  0  0  0  0
   12.2747    7.5102   20.0420 C   0  0  0  0  0  0  0  0  0  0  0  0
   14.2544    6.2142   19.4191 C   0  0  0  0  0  0  0  0  0  0  0  0
   13.0695    6.3705   20.0375 N   0  0  0  0  0  0  0  0  0  0  0  0
    9.1913    8.0876   21.8361 N   0  0  0  0  0  0  0  0  0  0  0  0
   10.4739    9.4813   20.2889 C   0  0  0  0  0  0  0  0  0  0  0  0
    7.5551    7.1270   23.1200 O   0  0  0  0  0  0  0  0  0  0  0  0
  1 11  4  0
  1 21  4  0
  2  4  1  0
  2  8  1  0
  2 11  1  0
  3 10  4  0
  3 14  4  0
  4  5  1  0
  4 18  2  0
  6 12  1  0
  6 17  4  0
  6 23  4  0
  7  9  1  0
  7 13  4  0
  7 19  4  0
  9 20  1  0
 10 19  4  0
 11 25  4  0
 13 14  4  0
 15 16  4  0
 15 17  4  0
 15 21  4  0
 16 24  1  0
 16 25  4  0
 20 24  1  0
 20 26  2  0
 21 23  4  0
 22 23  1  0
M  END
$$$$

 Created by Python create_sdf_string function

 26 28  0  0  0  0  0  0  0  0999 V2000
   12.4616    8.6700   19.4180 N   0  0  0  0  0  0  0  0  0  0  0  0
   11.8329   10.8148   18.6769 N   0  0  0  0  0  0  0  0  0  0  0  0
    6.1021    2.5564   21.0678 C   0  0  0  0  0  0  0  0  0  0  0  0
   10.9097   11.8051   18.4804 C   0  0  0  0  0  0  0  0  0  0  0  0
   11.2280   12.9135   17.5669 C   0  0  0  0  0  0  0  0  0  0  0  0
   12.3782    5.4231   20.7777 C   0  0  0  0  0  0  0  0  0  0  0  0
    7.7365    4.6508   21.6987 C   0  0  0  0  0  0  0  0  0  0  0  0
   13.0186   11.0102   18.0020 C   0  0  0  0  0  0  0  0  0  0  0  0
    8.6628    5.7088   21.8871 N   0  0  0  0  0  0  0  0  0  0  0  0
    5.6516    3.5258   21.9140 C   0  0  0  0  0  0  0  0  0  0  0  0
   11.5863    9.6815   19.4539 C   0  0  0  0  0  0  0  0  0  0  0  0
   12.9648    4.1543   20.9205 C   0  0  0  0  0  0  0  0  0  0  0  0
    8.2089    3.6265   20.8929 C   0  0  0  0  0  0  0  0  0  0  0  0
    7.3827    2.5724   20.5432 C   0  0  0  0  0  0  0  0  0  0  0  0
   11.1529    7.2750   20.8025 C   0  0  0  0  0  0  0  0  0  0  0  0
   10.2573    8.3215   20.9827 C   0  0  0  0  0  0  0  0  0  0  0  0
   11.1606    5.9378   21.2366 N   0  0  0  0  0  0  0  0  0  0  0  0
    9.8932   11.6736   19.0677 O   0  0  0  0  0  0  0  0  0  0  0  0
    6.4470    4.5850   22.2321 C   0  0  0  0  0  0  0  0  0  0  0  0
    8.4619    6.9895   22.2968 C   0  0  0  0  0  0  0  0  0  0  0  0
   12.2747    7.5102   20.0420 C   0  0  0  0  0  0  0  0  0  0  0  0
   14.2544    6.2142   19.4191 C   0  0  0  0  0  0  0  0  0  0  0  0
   13.0695    6.3705   20.0375 N   0  0  0  0  0  0  0  0  0  0  0  0
    9.1913    8.0876   21.8361 N   0  0  0  0  0  0  0  0  0  0  0  0
   10.4739    9.4813   20.2889 C   0  0  0  0  0  0  0  0  0  0  0  0
    7.5551    7.1270   23.1200 O   0  0  0  0  0  0  0  0  0  0  0  0
  1 11  4  0
  1 21  4  0
  2  4  1  0
  2  8  1  0
  2 11  1  0
  3 10  4  0
  3 14  4  0
  4  5  1  0
  4 18  2  0
  6 12  1  0
  6 17  4  0
  6 23  4  0
  7  9  1  0
  7 13  4  0
  7 19  4  0
  9 20  1  0
 10 19  4  0
 11 25  4  0
 13 14  4  0
 15 16  4  0
 15 17  4  0
 15 21  4  0
 16 24  1  0
 16 25  4  0
 20 24  1  0
 20 26  2  0
 21 23  4  0
 22 23  1  0
M  END
$$$$

 Created by Python create_sdf_string function

 26 28  0  0  0  0  0  0  0  0999 V2000
   12.4616    8.6700   19.4180 N   0  0  0  0  0  0  0  0  0  0  0  0
   11.8329   10.8148   18.6769 N   0  0  0  0  0  0  0  0  0  0  0  0
    6.1021    2.5564   21.0678 C   0  0  0  0  0  0  0  0  0  0  0  0
   10.9097   11.8051   18.4804 C   0  0  0  0  0  0  0  0  0  0  0  0
   11.2280   12.9135   17.5669 C   0  0  0  0  0  0  0  0  0  0  0  0
   12.3782    5.4231   20.7777 C   0  0  0  0  0  0  0  0  0  0  0  0
    7.7365    4.6508   21.6987 C   0  0  0  0  0  0  0  0  0  0  0  0
   13.0186   11.0102   18.0020 C   0  0  0  0  0  0  0  0  0  0  0  0
    8.6628    5.7088   21.8871 N   0  0  0  0  0  0  0  0  0  0  0  0
    5.6516    3.5258   21.9140 C   0  0  0  0  0  0  0  0  0  0  0  0
   11.5863    9.6815   19.4539 C   0  0  0  0  0  0  0  0  0  0  0  0
   12.9648    4.1543   20.9205 C   0  0  0  0  0  0  0  0  0  0  0  0
    8.2089    3.6265   20.8929 C   0  0  0  0  0  0  0  0  0  0  0  0
    7.3827    2.5724   20.5432 C   0  0  0  0  0  0  0  0  0  0  0  0
   11.1529    7.2750   20.8025 C   0  0  0  0  0  0  0  0  0  0  0  0
   10.2573    8.3215   20.9827 C   0  0  0  0  0  0  0  0  0  0  0  0
   11.1606    5.9378   21.2366 N   0  0  0  0  0  0  0  0  0  0  0  0
    9.8932   11.6736   19.0677 O   0  0  0  0  0  0  0  0  0  0  0  0
    6.4470    4.5850   22.2321 C   0  0  0  0  0  0  0  0  0  0  0  0
    8.4619    6.9895   22.2968 C   0  0  0  0  0  0  0  0  0  0  0  0
   12.2747    7.5102   20.0420 C   0  0  0  0  0  0  0  0  0  0  0  0
   14.2544    6.2142   19.4191 C   0  0  0  0  0  0  0  0  0  0  0  0
   13.0695    6.3705   20.0375 N   0  0  0  0  0  0  0  0  0  0  0  0
    9.1913    8.0876   21.8361 N   0  0  0  0  0  0  0  0  0  0  0  0
   10.4739    9.4813   20.2889 C   0  0  0  0  0  0  0  0  0  0  0  0
    7.5551    7.1270   23.1200 O   0  0  0  0  0  0  0  0  0  0  0  0
  1 11  4  0
  1 21  4  0
  2  4  1  0
  2  8  1  0
  2 11  1  0
  3 10  4  0
  3 14  4  0
  4  5  1  0
  4 18  2  0
  6 12  1  0
  6 17  4  0
  6 23  4  0
  7  9  1  0
  7 13  4  0
  7 19  4  0
  9 20  1  0
 10 19  4  0
 11 25  4  0
 13 14  4  0
 15 16  4  0
 15 17  4  0
 15 21  4  0
 16 24  1  0
 16 25  4  0
 20 24  1  0
 20 26  2  0
 21 23  4  0
 22 23  1  0
M  END
$$$$

 Created by Python create_sdf_string function

 26 28  0  0  0  0  0  0  0  0999 V2000
   12.4616    8.6700   19.4180 N   0  0  0  0  0  0  0  0  0  0  0  0
   11.8329   10.8148   18.6769 N   0  0  0  0  0  0  0  0  0  0  0  0
    6.1021    2.5564   21.0678 C   0  0  0  0  0  0  0  0  0  0  0  0
   10.9097   11.8051   18.4804 C   0  0  0  0  0  0  0  0  0  0  0  0
   11.2280   12.9135   17.5669 C   0  0  0  0  0  0  0  0  0  0  0  0
   12.3782    5.4231   20.7777 C   0  0  0  0  0  0  0  0  0  0  0  0
    7.7365    4.6508   21.6987 C   0  0  0  0  0  0  0  0  0  0  0  0
   13.0186   11.0102   18.0020 C   0  0  0  0  0  0  0  0  0  0  0  0
    8.6628    5.7088   21.8871 N   0  0  0  0  0  0  0  0  0  0  0  0
    5.6516    3.5258   21.9140 C   0  0  0  0  0  0  0  0  0  0  0  0
   11.5863    9.6815   19.4539 C   0  0  0  0  0  0  0  0  0  0  0  0
   12.9648    4.1543   20.9205 C   0  0  0  0  0  0  0  0  0  0  0  0
    8.2089    3.6265   20.8929 C   0  0  0  0  0  0  0  0  0  0  0  0
    7.3827    2.5724   20.5432 C   0  0  0  0  0  0  0  0  0  0  0  0
   11.1529    7.2750   20.8025 C   0  0  0  0  0  0  0  0  0  0  0  0
   10.2573    8.3215   20.9827 C   0  0  0  0  0  0  0  0  0  0  0  0
   11.1606    5.9378   21.2366 N   0  0  0  0  0  0  0  0  0  0  0  0
    9.8932   11.6736   19.0677 O   0  0  0  0  0  0  0  0  0  0  0  0
    6.4470    4.5850   22.2321 C   0  0  0  0  0  0  0  0  0  0  0  0
    8.4619    6.9895   22.2968 C   0  0  0  0  0  0  0  0  0  0  0  0
   12.2747    7.5102   20.0420 C   0  0  0  0  0  0  0  0  0  0  0  0
   14.2544    6.2142   19.4191 C   0  0  0  0  0  0  0  0  0  0  0  0
   13.0695    6.3705   20.0375 N   0  0  0  0  0  0  0  0  0  0  0  0
    9.1913    8.0876   21.8361 N   0  0  0  0  0  0  0  0  0  0  0  0
   10.4739    9.4813   20.2889 C   0  0  0  0  0  0  0  0  0  0  0  0
    7.5551    7.1270   23.1200 O   0  0  0  0  0  0  0  0  0  0  0  0
  1 11  4  0
  1 21  4  0
  2  4  1  0
  2  8  1  0
  2 11  1  0
  3 10  4  0
  3 14  4  0
  4  5  1  0
  4 18  2  0
  6 12  1  0
  6 17  4  0
  6 23  4  0
  7  9  1  0
  7 13  4  0
  7 19  4  0
  9 20  1  0
 10 19  4  0
 11 25  4  0
 13 14  4  0
 15 16  4  0
 15 17  4  0
 15 21  4  0
 16 24  1  0
 16 25  4  0
 20 24  1  0
 20 26  2  0
 21 23  4  0
 22 23  1  0
M  END
$$$$

 Created by Python create_sdf_string function

 26 28  0  0  0  0  0  0  0  0999 V2000
   12.4616    8.6700   19.4180 N   0  0  0  0  0  0  0  0  0  0  0  0
   11.8329   10.8148   18.6769 N   0  0  0  0  0  0  0  0  0  0  0  0
    6.1021    2.5564   21.0678 C   0  0  0  0  0  0  0  0  0  0  0  0
   10.9097   11.8051   18.4804 C   0  0  0  0  0  0  0  0  0  0  0  0
   11.2280   12.9135   17.5669 C   0  0  0  0  0  0  0  0  0  0  0  0
   12.3782    5.4231   20.7777 C   0  0  0  0  0  0  0  0  0  0  0  0
    7.7365    4.6508   21.6987 C   0  0  0  0  0  0  0  0  0  0  0  0
   13.0186   11.0102   18.0020 C   0  0  0  0  0  0  0  0  0  0  0  0
    8.6628    5.7088   21.8871 N   0  0  0  0  0  0  0  0  0  0  0  0
    5.6516    3.5258   21.9140 C   0  0  0  0  0  0  0  0  0  0  0  0
   11.5863    9.6815   19.4539 C   0  0  0  0  0  0  0  0  0  0  0  0
   12.9648    4.1543   20.9205 C   0  0  0  0  0  0  0  0  0  0  0  0
    8.2089    3.6265   20.8929 C   0  0  0  0  0  0  0  0  0  0  0  0
    7.3827    2.5724   20.5432 C   0  0  0  0  0  0  0  0  0  0  0  0
   11.1529    7.2750   20.8025 C   0  0  0  0  0  0  0  0  0  0  0  0
   10.2573    8.3215   20.9827 C   0  0  0  0  0  0  0  0  0  0  0  0
   11.1606    5.9378   21.2366 N   0  0  0  0  0  0  0  0  0  0  0  0
    9.8932   11.6736   19.0677 O   0  0  0  0  0  0  0  0  0  0  0  0
    6.4470    4.5850   22.2321 C   0  0  0  0  0  0  0  0  0  0  0  0
    8.4619    6.9895   22.2968 C   0  0  0  0  0  0  0  0  0  0  0  0
   12.2747    7.5102   20.0420 C   0  0  0  0  0  0  0  0  0  0  0  0
   14.2544    6.2142   19.4191 C   0  0  0  0  0  0  0  0  0  0  0  0
   13.0695    6.3705   20.0375 N   0  0  0  0  0  0  0  0  0  0  0  0
    9.1913    8.0876   21.8361 N   0  0  0  0  0  0  0  0  0  0  0  0
   10.4739    9.4813   20.2889 C   0  0  0  0  0  0  0  0  0  0  0  0
    7.5551    7.1270   23.1200 O   0  0  0  0  0  0  0  0  0  0  0  0
  1 11  4  0
  1 21  4  0
  2  4  1  0
  2  8  1  0
  2 11  1  0
  3 10  4  0
  3 14  4  0
  4  5  1  0
  4 18  2  0
  6 12  1  0
  6 17  4  0
  6 23  4  0
  7  9  1  0
  7 13  4  0
  7 19  4  0
  9 20  1  0
 10 19  4  0
 11 25  4  0
 13 14  4  0
 15 16  4  0
 15 17  4  0
 15 21  4  0
 16 24  1  0
 16 25  4  0
 20 24  1  0
 20 26  2  0
 21 23  4  0
 22 23  1  0
M  END
$$$$

 Created by Python create_sdf_string function

 26 28  0  0  0  0  0  0  0  0999 V2000
   12.4616    8.6700   19.4180 N   0  0  0  0  0  0  0  0  0  0  0  0
   11.8329   10.8148   18.6769 N   0  0  0  0  0  0  0  0  0  0  0  0
    6.1021    2.5564   21.0678 C   0  0  0  0  0  0  0  0  0  0  0  0
   10.9097   11.8051   18.4804 C   0  0  0  0  0  0  0  0  0  0  0  0
   11.2280   12.9135   17.5669 C   0  0  0  0  0  0  0  0  0  0  0  0
   12.3782    5.4231   20.7777 C   0  0  0  0  0  0  0  0  0  0  0  0
    7.7365    4.6508   21.6987 C   0  0  0  0  0  0  0  0  0  0  0  0
   13.0186   11.0102   18.0020 C   0  0  0  0  0  0  0  0  0  0  0  0
    8.6628    5.7088   21.8871 N   0  0  0  0  0  0  0  0  0  0  0  0
    5.6516    3.5258   21.9140 C   0  0  0  0  0  0  0  0  0  0  0  0
   11.5863    9.6815   19.4539 C   0  0  0  0  0  0  0  0  0  0  0  0
   12.9648    4.1543   20.9205 C   0  0  0  0  0  0  0  0  0  0  0  0
    8.2089    3.6265   20.8929 C   0  0  0  0  0  0  0  0  0  0  0  0
    7.3827    2.5724   20.5432 C   0  0  0  0  0  0  0  0  0  0  0  0
   11.1529    7.2750   20.8025 C   0  0  0  0  0  0  0  0  0  0  0  0
   10.2573    8.3215   20.9827 C   0  0  0  0  0  0  0  0  0  0  0  0
   11.1606    5.9378   21.2366 N   0  0  0  0  0  0  0  0  0  0  0  0
    9.8932   11.6736   19.0677 O   0  0  0  0  0  0  0  0  0  0  0  0
    6.4470    4.5850   22.2321 C   0  0  0  0  0  0  0  0  0  0  0  0
    8.4619    6.9895   22.2968 C   0  0  0  0  0  0  0  0  0  0  0  0
   12.2747    7.5102   20.0420 C   0  0  0  0  0  0  0  0  0  0  0  0
   14.2544    6.2142   19.4191 C   0  0  0  0  0  0  0  0  0  0  0  0
   13.0695    6.3705   20.0375 N   0  0  0  0  0  0  0  0  0  0  0  0
    9.1913    8.0876   21.8361 N   0  0  0  0  0  0  0  0  0  0  0  0
   10.4739    9.4813   20.2889 C   0  0  0  0  0  0  0  0  0  0  0  0
    7.5551    7.1270   23.1200 O   0  0  0  0  0  0  0  0  0  0  0  0
  1 11  4  0
  1 21  4  0
  2  4  1  0
  2  8  1  0
  2 11  1  0
  3 10  4  0
  3 14  4  0
  4  5  1  0
  4 18  2  0
  6 12  1  0
  6 17  4  0
  6 23  4  0
  7  9  1  0
  7 13  4  0
  7 19  4  0
  9 20  1  0
 10 19  4  0
 11 25  4  0
 13 14  4  0
 15 16  4  0
 15 17  4  0
 15 21  4  0
 16 24  1  0
 16 25  4  0
 20 24  1  0
 20 26  2  0
 21 23  4  0
 22 23  1  0
M  END
$$$$

 Created by Python create_sdf_string function

 26 28  0  0  0  0  0  0  0  0999 V2000
   12.4616    8.6700   19.4180 N   0  0  0  0  0  0  0  0  0  0  0  0
   11.8329   10.8148   18.6769 N   0  0  0  0  0  0  0  0  0  0  0  0
    6.1021    2.5564   21.0678 C   0  0  0  0  0  0  0  0  0  0  0  0
   10.9097   11.8051   18.4804 C   0  0  0  0  0  0  0  0  0  0  0  0
   11.2280   12.9135   17.5669 C   0  0  0  0  0  0  0  0  0  0  0  0
   12.3782    5.4231   20.7777 C   0  0  0  0  0  0  0  0  0  0  0  0
    7.7365    4.6508   21.6987 C   0  0  0  0  0  0  0  0  0  0  0  0
   13.0186   11.0102   18.0020 C   0  0  0  0  0  0  0  0  0  0  0  0
    8.6628    5.7088   21.8871 N   0  0  0  0  0  0  0  0  0  0  0  0
    5.6516    3.5258   21.9140 C   0  0  0  0  0  0  0  0  0  0  0  0
   11.5863    9.6815   19.4539 C   0  0  0  0  0  0  0  0  0  0  0  0
   12.9648    4.1543   20.9205 C   0  0  0  0  0  0  0  0  0  0  0  0
    8.2089    3.6265   20.8929 C   0  0  0  0  0  0  0  0  0  0  0  0
    7.3827    2.5724   20.5432 C   0  0  0  0  0  0  0  0  0  0  0  0
   11.1529    7.2750   20.8025 C   0  0  0  0  0  0  0  0  0  0  0  0
   10.2573    8.3215   20.9827 C   0  0  0  0  0  0  0  0  0  0  0  0
   11.1606    5.9378   21.2366 N   0  0  0  0  0  0  0  0  0  0  0  0
    9.8932   11.6736   19.0677 O   0  0  0  0  0  0  0  0  0  0  0  0
    6.4470    4.5850   22.2321 C   0  0  0  0  0  0  0  0  0  0  0  0
    8.4619    6.9895   22.2968 C   0  0  0  0  0  0  0  0  0  0  0  0
   12.2747    7.5102   20.0420 C   0  0  0  0  0  0  0  0  0  0  0  0
   14.2544    6.2142   19.4191 C   0  0  0  0  0  0  0  0  0  0  0  0
   13.0695    6.3705   20.0375 N   0  0  0  0  0  0  0  0  0  0  0  0
    9.1913    8.0876   21.8361 N   0  0  0  0  0  0  0  0  0  0  0  0
   10.4739    9.4813   20.2889 C   0  0  0  0  0  0  0  0  0  0  0  0
    7.5551    7.1270   23.1200 O   0  0  0  0  0  0  0  0  0  0  0  0
  1 11  4  0
  1 21  4  0
  2  4  1  0
  2  8  1  0
  2 11  1  0
  3 10  4  0
  3 14  4  0
  4  5  1  0
  4 18  2  0
  6 12  1  0
  6 17  4  0
  6 23  4  0
  7  9  1  0
  7 13  4  0
  7 19  4  0
  9 20  1  0
 10 19  4  0
 11 25  4  0
 13 14  4  0
 15 16  4  0
 15 17  4  0
 15 21  4  0
 16 24  1  0
 16 25  4  0
 20 24  1  0
 20 26  2  0
 21 23  4  0
 22 23  1  0
M  END
$$$$

 Created by Python create_sdf_string function

 26 28  0  0  0  0  0  0  0  0999 V2000
   12.4616    8.6700   19.4180 N   0  0  0  0  0  0  0  0  0  0  0  0
   11.8329   10.8148   18.6769 N   0  0  0  0  0  0  0  0  0  0  0  0
    6.1021    2.5564   21.0678 C   0  0  0  0  0  0  0  0  0  0  0  0
   10.9097   11.8051   18.4804 C   0  0  0  0  0  0  0  0  0  0  0  0
   11.2280   12.9135   17.5669 C   0  0  0  0  0  0  0  0  0  0  0  0
   12.3782    5.4231   20.7777 C   0  0  0  0  0  0  0  0  0  0  0  0
    7.7365    4.6508   21.6987 C   0  0  0  0  0  0  0  0  0  0  0  0
   13.0186   11.0102   18.0020 C   0  0  0  0  0  0  0  0  0  0  0  0
    8.6628    5.7088   21.8871 N   0  0  0  0  0  0  0  0  0  0  0  0
    5.6516    3.5258   21.9140 C   0  0  0  0  0  0  0  0  0  0  0  0
   11.5863    9.6815   19.4539 C   0  0  0  0  0  0  0  0  0  0  0  0
   12.9648    4.1543   20.9205 C   0  0  0  0  0  0  0  0  0  0  0  0
    8.2089    3.6265   20.8929 C   0  0  0  0  0  0  0  0  0  0  0  0
    7.3827    2.5724   20.5432 C   0  0  0  0  0  0  0  0  0  0  0  0
   11.1529    7.2750   20.8025 C   0  0  0  0  0  0  0  0  0  0  0  0
   10.2573    8.3215   20.9827 C   0  0  0  0  0  0  0  0  0  0  0  0
   11.1606    5.9378   21.2366 N   0  0  0  0  0  0  0  0  0  0  0  0
    9.8932   11.6736   19.0677 O   0  0  0  0  0  0  0  0  0  0  0  0
    6.4470    4.5850   22.2321 C   0  0  0  0  0  0  0  0  0  0  0  0
    8.4619    6.9895   22.2968 C   0  0  0  0  0  0  0  0  0  0  0  0
   12.2747    7.5102   20.0420 C   0  0  0  0  0  0  0  0  0  0  0  0
   14.2544    6.2142   19.4191 C   0  0  0  0  0  0  0  0  0  0  0  0
   13.0695    6.3705   20.0375 N   0  0  0  0  0  0  0  0  0  0  0  0
    9.1913    8.0876   21.8361 N   0  0  0  0  0  0  0  0  0  0  0  0
   10.4739    9.4813   20.2889 C   0  0  0  0  0  0  0  0  0  0  0  0
    7.5551    7.1270   23.1200 O   0  0  0  0  0  0  0  0  0  0  0  0
  1 11  4  0
  1 21  4  0
  2  4  1  0
  2  8  1  0
  2 11  1  0
  3 10  4  0
  3 14  4  0
  4  5  1  0
  4 18  2  0
  6 12  1  0
  6 17  4  0
  6 23  4  0
  7  9  1  0
  7 13  4  0
  7 19  4  0
  9 20  1  0
 10 19  4  0
 11 25  4  0
 13 14  4  0
 15 16  4  0
 15 17  4  0
 15 21  4  0
 16 24  1  0
 16 25  4  0
 20 24  1  0
 20 26  2  0
 21 23  4  0
 22 23  1  0
M  END
$$$$

 Created by Python create_sdf_string function

 26 28  0  0  0  0  0  0  0  0999 V2000
   12.4616    8.6700   19.4180 N   0  0  0  0  0  0  0  0  0  0  0  0
   11.8329   10.8148   18.6769 N   0  0  0  0  0  0  0  0  0  0  0  0
    6.1021    2.5564   21.0678 C   0  0  0  0  0  0  0  0  0  0  0  0
   10.9097   11.8051   18.4804 C   0  0  0  0  0  0  0  0  0  0  0  0
   11.2280   12.9135   17.5669 C   0  0  0  0  0  0  0  0  0  0  0  0
   12.3782    5.4231   20.7777 C   0  0  0  0  0  0  0  0  0  0  0  0
    7.7365    4.6508   21.6987 C   0  0  0  0  0  0  0  0  0  0  0  0
   13.0186   11.0102   18.0020 C   0  0  0  0  0  0  0  0  0  0  0  0
    8.6628    5.7088   21.8871 N   0  0  0  0  0  0  0  0  0  0  0  0
    5.6516    3.5258   21.9140 C   0  0  0  0  0  0  0  0  0  0  0  0
   11.5863    9.6815   19.4539 C   0  0  0  0  0  0  0  0  0  0  0  0
   12.9648    4.1543   20.9205 C   0  0  0  0  0  0  0  0  0  0  0  0
    8.2089    3.6265   20.8929 C   0  0  0  0  0  0  0  0  0  0  0  0
    7.3827    2.5724   20.5432 C   0  0  0  0  0  0  0  0  0  0  0  0
   11.1529    7.2750   20.8025 C   0  0  0  0  0  0  0  0  0  0  0  0
   10.2573    8.3215   20.9827 C   0  0  0  0  0  0  0  0  0  0  0  0
   11.1606    5.9378   21.2366 N   0  0  0  0  0  0  0  0  0  0  0  0
    9.8932   11.6736   19.0677 O   0  0  0  0  0  0  0  0  0  0  0  0
    6.4470    4.5850   22.2321 C   0  0  0  0  0  0  0  0  0  0  0  0
    8.4619    6.9895   22.2968 C   0  0  0  0  0  0  0  0  0  0  0  0
   12.2747    7.5102   20.0420 C   0  0  0  0  0  0  0  0  0  0  0  0
   14.2544    6.2142   19.4191 C   0  0  0  0  0  0  0  0  0  0  0  0
   13.0695    6.3705   20.0375 N   0  0  0  0  0  0  0  0  0  0  0  0
    9.1913    8.0876   21.8361 N   0  0  0  0  0  0  0  0  0  0  0  0
   10.4739    9.4813   20.2889 C   0  0  0  0  0  0  0  0  0  0  0  0
    7.5551    7.1270   23.1200 O   0  0  0  0  0  0  0  0  0  0  0  0
  1 11  4  0
  1 21  4  0
  2  4  1  0
  2  8  1  0
  2 11  1  0
  3 10  4  0
  3 14  4  0
  4  5  1  0
  4 18  2  0
  6 12  1  0
  6 17  4  0
  6 23  4  0
  7  9  1  0
  7 13  4  0
  7 19  4  0
  9 20  1  0
 10 19  4  0
 11 25  4  0
 13 14  4  0
 15 16  4  0
 15 17  4  0
 15 21  4  0
 16 24  1  0
 16 25  4  0
 20 24  1  0
 20 26  2  0
 21 23  4  0
 22 23  1  0
M  END
$$$$

 Created by Python create_sdf_string function

 26 28  0  0  0  0  0  0  0  0999 V2000
   12.4616    8.6700   19.4180 N   0  0  0  0  0  0  0  0  0  0  0  0
   11.8329   10.8148   18.6769 N   0  0  0  0  0  0  0  0  0  0  0  0
    6.1021    2.5564   21.0678 C   0  0  0  0  0  0  0  0  0  0  0  0
   10.9097   11.8051   18.4804 C   0  0  0  0  0  0  0  0  0  0  0  0
   11.2280   12.9135   17.5669 C   0  0  0  0  0  0  0  0  0  0  0  0
   12.3782    5.4231   20.7777 C   0  0  0  0  0  0  0  0  0  0  0  0
    7.7365    4.6508   21.6987 C   0  0  0  0  0  0  0  0  0  0  0  0
   13.0186   11.0102   18.0020 C   0  0  0  0  0  0  0  0  0  0  0  0
    8.6628    5.7088   21.8871 N   0  0  0  0  0  0  0  0  0  0  0  0
    5.6516    3.5258   21.9140 C   0  0  0  0  0  0  0  0  0  0  0  0
   11.5863    9.6815   19.4539 C   0  0  0  0  0  0  0  0  0  0  0  0
   12.9648    4.1543   20.9205 C   0  0  0  0  0  0  0  0  0  0  0  0
    8.2089    3.6265   20.8929 C   0  0  0  0  0  0  0  0  0  0  0  0
    7.3827    2.5724   20.5432 C   0  0  0  0  0  0  0  0  0  0  0  0
   11.1529    7.2750   20.8025 C   0  0  0  0  0  0  0  0  0  0  0  0
   10.2573    8.3215   20.9827 C   0  0  0  0  0  0  0  0  0  0  0  0
   11.1606    5.9378   21.2366 N   0  0  0  0  0  0  0  0  0  0  0  0
    9.8932   11.6736   19.0677 O   0  0  0  0  0  0  0  0  0  0  0  0
    6.4470    4.5850   22.2321 C   0  0  0  0  0  0  0  0  0  0  0  0
    8.4619    6.9895   22.2968 C   0  0  0  0  0  0  0  0  0  0  0  0
   12.2747    7.5102   20.0420 C   0  0  0  0  0  0  0  0  0  0  0  0
   14.2544    6.2142   19.4191 C   0  0  0  0  0  0  0  0  0  0  0  0
   13.0695    6.3705   20.0375 N   0  0  0  0  0  0  0  0  0  0  0  0
    9.1913    8.0876   21.8361 N   0  0  0  0  0  0  0  0  0  0  0  0
   10.4739    9.4813   20.2889 C   0  0  0  0  0  0  0  0  0  0  0  0
    7.5551    7.1270   23.1200 O   0  0  0  0  0  0  0  0  0  0  0  0
  1 11  4  0
  1 21  4  0
  2  4  1  0
  2  8  1  0
  2 11  1  0
  3 10  4  0
  3 14  4  0
  4  5  1  0
  4 18  2  0
  6 12  1  0
  6 17  4  0
  6 23  4  0
  7  9  1  0
  7 13  4  0
  7 19  4  0
  9 20  1  0
 10 19  4  0
 11 25  4  0
 13 14  4  0
 15 16  4  0
 15 17  4  0
 15 21  4  0
 16 24  1  0
 16 25  4  0
 20 24  1  0
 20 26  2  0
 21 23  4  0
 22 23  1  0
M  END
$$$$

 Created by Python create_sdf_string function

 26 28  0  0  0  0  0  0  0  0999 V2000
   12.4616    8.6700   19.4180 N   0  0  0  0  0  0  0  0  0  0  0  0
   11.8329   10.8148   18.6769 N   0  0  0  0  0  0  0  0  0  0  0  0
    6.1021    2.5564   21.0678 C   0  0  0  0  0  0  0  0  0  0  0  0
   10.9097   11.8051   18.4804 C   0  0  0  0  0  0  0  0  0  0  0  0
   11.2280   12.9135   17.5669 C   0  0  0  0  0  0  0  0  0  0  0  0
   12.3782    5.4231   20.7777 C   0  0  0  0  0  0  0  0  0  0  0  0
    7.7365    4.6508   21.6987 C   0  0  0  0  0  0  0  0  0  0  0  0
   13.0186   11.0102   18.0020 C   0  0  0  0  0  0  0  0  0  0  0  0
    8.6628    5.7088   21.8871 N   0  0  0  0  0  0  0  0  0  0  0  0
    5.6516    3.5258   21.9140 C   0  0  0  0  0  0  0  0  0  0  0  0
   11.5863    9.6815   19.4539 C   0  0  0  0  0  0  0  0  0  0  0  0
   12.9648    4.1543   20.9205 C   0  0  0  0  0  0  0  0  0  0  0  0
    8.2089    3.6265   20.8929 C   0  0  0  0  0  0  0  0  0  0  0  0
    7.3827    2.5724   20.5432 C   0  0  0  0  0  0  0  0  0  0  0  0
   11.1529    7.2750   20.8025 C   0  0  0  0  0  0  0  0  0  0  0  0
   10.2573    8.3215   20.9827 C   0  0  0  0  0  0  0  0  0  0  0  0
   11.1606    5.9378   21.2366 N   0  0  0  0  0  0  0  0  0  0  0  0
    9.8932   11.6736   19.0677 O   0  0  0  0  0  0  0  0  0  0  0  0
    6.4470    4.5850   22.2321 C   0  0  0  0  0  0  0  0  0  0  0  0
    8.4619    6.9895   22.2968 C   0  0  0  0  0  0  0  0  0  0  0  0
   12.2747    7.5102   20.0420 C   0  0  0  0  0  0  0  0  0  0  0  0
   14.2544    6.2142   19.4191 C   0  0  0  0  0  0  0  0  0  0  0  0
   13.0695    6.3705   20.0375 N   0  0  0  0  0  0  0  0  0  0  0  0
    9.1913    8.0876   21.8361 N   0  0  0  0  0  0  0  0  0  0  0  0
   10.4739    9.4813   20.2889 C   0  0  0  0  0  0  0  0  0  0  0  0
    7.5551    7.1270   23.1200 O   0  0  0  0  0  0  0  0  0  0  0  0
  1 11  4  0
  1 21  4  0
  2  4  1  0
  2  8  1  0
  2 11  1  0
  3 10  4  0
  3 14  4  0
  4  5  1  0
  4 18  2  0
  6 12  1  0
  6 17  4  0
  6 23  4  0
  7  9  1  0
  7 13  4  0
  7 19  4  0
  9 20  1  0
 10 19  4  0
 11 25  4  0
 13 14  4  0
 15 16  4  0
 15 17  4  0
 15 21  4  0
 16 24  1  0
 16 25  4  0
 20 24  1  0
 20 26  2  0
 21 23  4  0
 22 23  1  0
M  END
$$$$

 Created by Python create_sdf_string function

 26 28  0  0  0  0  0  0  0  0999 V2000
   12.4616    8.6700   19.4180 N   0  0  0  0  0  0  0  0  0  0  0  0
   11.8329   10.8148   18.6769 N   0  0  0  0  0  0  0  0  0  0  0  0
    6.1021    2.5564   21.0678 C   0  0  0  0  0  0  0  0  0  0  0  0
   10.9097   11.8051   18.4804 C   0  0  0  0  0  0  0  0  0  0  0  0
   11.2280   12.9135   17.5669 C   0  0  0  0  0  0  0  0  0  0  0  0
   12.3782    5.4231   20.7777 C   0  0  0  0  0  0  0  0  0  0  0  0
    7.7365    4.6508   21.6987 C   0  0  0  0  0  0  0  0  0  0  0  0
   13.0186   11.0102   18.0020 C   0  0  0  0  0  0  0  0  0  0  0  0
    8.6628    5.7088   21.8871 N   0  0  0  0  0  0  0  0  0  0  0  0
    5.6516    3.5258   21.9140 C   0  0  0  0  0  0  0  0  0  0  0  0
   11.5863    9.6815   19.4539 C   0  0  0  0  0  0  0  0  0  0  0  0
   12.9648    4.1543   20.9205 C   0  0  0  0  0  0  0  0  0  0  0  0
    8.2089    3.6265   20.8929 C   0  0  0  0  0  0  0  0  0  0  0  0
    7.3827    2.5724   20.5432 C   0  0  0  0  0  0  0  0  0  0  0  0
   11.1529    7.2750   20.8025 C   0  0  0  0  0  0  0  0  0  0  0  0
   10.2573    8.3215   20.9827 C   0  0  0  0  0  0  0  0  0  0  0  0
   11.1606    5.9378   21.2366 N   0  0  0  0  0  0  0  0  0  0  0  0
    9.8932   11.6736   19.0677 O   0  0  0  0  0  0  0  0  0  0  0  0
    6.4470    4.5850   22.2321 C   0  0  0  0  0  0  0  0  0  0  0  0
    8.4619    6.9895   22.2968 C   0  0  0  0  0  0  0  0  0  0  0  0
   12.2747    7.5102   20.0420 C   0  0  0  0  0  0  0  0  0  0  0  0
   14.2544    6.2142   19.4191 C   0  0  0  0  0  0  0  0  0  0  0  0
   13.0695    6.3705   20.0375 N   0  0  0  0  0  0  0  0  0  0  0  0
    9.1913    8.0876   21.8361 N   0  0  0  0  0  0  0  0  0  0  0  0
   10.4739    9.4813   20.2889 C   0  0  0  0  0  0  0  0  0  0  0  0
    7.5551    7.1270   23.1200 O   0  0  0  0  0  0  0  0  0  0  0  0
  1 11  4  0
  1 21  4  0
  2  4  1  0
  2  8  1  0
  2 11  1  0
  3 10  4  0
  3 14  4  0
  4  5  1  0
  4 18  2  0
  6 12  1  0
  6 17  4  0
  6 23  4  0
  7  9  1  0
  7 13  4  0
  7 19  4  0
  9 20  1  0
 10 19  4  0
 11 25  4  0
 13 14  4  0
 15 16  4  0
 15 17  4  0
 15 21  4  0
 16 24  1  0
 16 25  4  0
 20 24  1  0
 20 26  2  0
 21 23  4  0
 22 23  1  0
M  END
$$$$

 Created by Python create_sdf_string function

 26 28  0  0  0  0  0  0  0  0999 V2000
   12.4616    8.6700   19.4180 N   0  0  0  0  0  0  0  0  0  0  0  0
   11.8329   10.8148   18.6769 N   0  0  0  0  0  0  0  0  0  0  0  0
    6.1021    2.5564   21.0678 C   0  0  0  0  0  0  0  0  0  0  0  0
   10.9097   11.8051   18.4804 C   0  0  0  0  0  0  0  0  0  0  0  0
   11.2280   12.9135   17.5669 C   0  0  0  0  0  0  0  0  0  0  0  0
   12.3782    5.4231   20.7777 C   0  0  0  0  0  0  0  0  0  0  0  0
    7.7365    4.6508   21.6987 C   0  0  0  0  0  0  0  0  0  0  0  0
   13.0186   11.0102   18.0020 C   0  0  0  0  0  0  0  0  0  0  0  0
    8.6628    5.7088   21.8871 N   0  0  0  0  0  0  0  0  0  0  0  0
    5.6516    3.5258   21.9140 C   0  0  0  0  0  0  0  0  0  0  0  0
   11.5863    9.6815   19.4539 C   0  0  0  0  0  0  0  0  0  0  0  0
   12.9648    4.1543   20.9205 C   0  0  0  0  0  0  0  0  0  0  0  0
    8.2089    3.6265   20.8929 C   0  0  0  0  0  0  0  0  0  0  0  0
    7.3827    2.5724   20.5432 C   0  0  0  0  0  0  0  0  0  0  0  0
   11.1529    7.2750   20.8025 C   0  0  0  0  0  0  0  0  0  0  0  0
   10.2573    8.3215   20.9827 C   0  0  0  0  0  0  0  0  0  0  0  0
   11.1606    5.9378   21.2366 N   0  0  0  0  0  0  0  0  0  0  0  0
    9.8932   11.6736   19.0677 O   0  0  0  0  0  0  0  0  0  0  0  0
    6.4470    4.5850   22.2321 C   0  0  0  0  0  0  0  0  0  0  0  0
    8.4619    6.9895   22.2968 C   0  0  0  0  0  0  0  0  0  0  0  0
   12.2747    7.5102   20.0420 C   0  0  0  0  0  0  0  0  0  0  0  0
   14.2544    6.2142   19.4191 C   0  0  0  0  0  0  0  0  0  0  0  0
   13.0695    6.3705   20.0375 N   0  0  0  0  0  0  0  0  0  0  0  0
    9.1913    8.0876   21.8361 N   0  0  0  0  0  0  0  0  0  0  0  0
   10.4739    9.4813   20.2889 C   0  0  0  0  0  0  0  0  0  0  0  0
    7.5551    7.1270   23.1200 O   0  0  0  0  0  0  0  0  0  0  0  0
  1 11  4  0
  1 21  4  0
  2  4  1  0
  2  8  1  0
  2 11  1  0
  3 10  4  0
  3 14  4  0
  4  5  1  0
  4 18  2  0
  6 12  1  0
  6 17  4  0
  6 23  4  0
  7  9  1  0
  7 13  4  0
  7 19  4  0
  9 20  1  0
 10 19  4  0
 11 25  4  0
 13 14  4  0
 15 16  4  0
 15 17  4  0
 15 21  4  0
 16 24  1  0
 16 25  4  0
 20 24  1  0
 20 26  2  0
 21 23  4  0
 22 23  1  0
M  END
$$$$

 Created by Python create_sdf_string function

 26 28  0  0  0  0  0  0  0  0999 V2000
   12.4616    8.6700   19.4180 N   0  0  0  0  0  0  0  0  0  0  0  0
   11.8329   10.8148   18.6769 N   0  0  0  0  0  0  0  0  0  0  0  0
    6.1021    2.5564   21.0678 C   0  0  0  0  0  0  0  0  0  0  0  0
   10.9097   11.8051   18.4804 C   0  0  0  0  0  0  0  0  0  0  0  0
   11.2280   12.9135   17.5669 C   0  0  0  0  0  0  0  0  0  0  0  0
   12.3782    5.4231   20.7777 C   0  0  0  0  0  0  0  0  0  0  0  0
    7.7365    4.6508   21.6987 C   0  0  0  0  0  0  0  0  0  0  0  0
   13.0186   11.0102   18.0020 C   0  0  0  0  0  0  0  0  0  0  0  0
    8.6628    5.7088   21.8871 N   0  0  0  0  0  0  0  0  0  0  0  0
    5.6516    3.5258   21.9140 C   0  0  0  0  0  0  0  0  0  0  0  0
   11.5863    9.6815   19.4539 C   0  0  0  0  0  0  0  0  0  0  0  0
   12.9648    4.1543   20.9205 C   0  0  0  0  0  0  0  0  0  0  0  0
    8.2089    3.6265   20.8929 C   0  0  0  0  0  0  0  0  0  0  0  0
    7.3827    2.5724   20.5432 C   0  0  0  0  0  0  0  0  0  0  0  0
   11.1529    7.2750   20.8025 C   0  0  0  0  0  0  0  0  0  0  0  0
   10.2573    8.3215   20.9827 C   0  0  0  0  0  0  0  0  0  0  0  0
   11.1606    5.9378   21.2366 N   0  0  0  0  0  0  0  0  0  0  0  0
    9.8932   11.6736   19.0677 O   0  0  0  0  0  0  0  0  0  0  0  0
    6.4470    4.5850   22.2321 C   0  0  0  0  0  0  0  0  0  0  0  0
    8.4619    6.9895   22.2968 C   0  0  0  0  0  0  0  0  0  0  0  0
   12.2747    7.5102   20.0420 C   0  0  0  0  0  0  0  0  0  0  0  0
   14.2544    6.2142   19.4191 C   0  0  0  0  0  0  0  0  0  0  0  0
   13.0695    6.3705   20.0375 N   0  0  0  0  0  0  0  0  0  0  0  0
    9.1913    8.0876   21.8361 N   0  0  0  0  0  0  0  0  0  0  0  0
   10.4739    9.4813   20.2889 C   0  0  0  0  0  0  0  0  0  0  0  0
    7.5551    7.1270   23.1200 O   0  0  0  0  0  0  0  0  0  0  0  0
  1 11  4  0
  1 21  4  0
  2  4  1  0
  2  8  1  0
  2 11  1  0
  3 10  4  0
  3 14  4  0
  4  5  1  0
  4 18  2  0
  6 12  1  0
  6 17  4  0
  6 23  4  0
  7  9  1  0
  7 13  4  0
  7 19  4  0
  9 20  1  0
 10 19  4  0
 11 25  4  0
 13 14  4  0
 15 16  4  0
 15 17  4  0
 15 21  4  0
 16 24  1  0
 16 25  4  0
 20 24  1  0
 20 26  2  0
 21 23  4  0
 22 23  1  0
M  END
$$$$

 Created by Python create_sdf_string function

 26 28  0  0  0  0  0  0  0  0999 V2000
   12.4616    8.6700   19.4180 N   0  0  0  0  0  0  0  0  0  0  0  0
   11.8329   10.8148   18.6769 N   0  0  0  0  0  0  0  0  0  0  0  0
    6.1021    2.5564   21.0678 C   0  0  0  0  0  0  0  0  0  0  0  0
   10.9097   11.8051   18.4804 C   0  0  0  0  0  0  0  0  0  0  0  0
   11.2280   12.9135   17.5669 C   0  0  0  0  0  0  0  0  0  0  0  0
   12.3782    5.4231   20.7777 C   0  0  0  0  0  0  0  0  0  0  0  0
    7.7365    4.6508   21.6987 C   0  0  0  0  0  0  0  0  0  0  0  0
   13.0186   11.0102   18.0020 C   0  0  0  0  0  0  0  0  0  0  0  0
    8.6628    5.7088   21.8871 N   0  0  0  0  0  0  0  0  0  0  0  0
    5.6516    3.5258   21.9140 C   0  0  0  0  0  0  0  0  0  0  0  0
   11.5863    9.6815   19.4539 C   0  0  0  0  0  0  0  0  0  0  0  0
   12.9648    4.1543   20.9205 C   0  0  0  0  0  0  0  0  0  0  0  0
    8.2089    3.6265   20.8929 C   0  0  0  0  0  0  0  0  0  0  0  0
    7.3827    2.5724   20.5432 C   0  0  0  0  0  0  0  0  0  0  0  0
   11.1529    7.2750   20.8025 C   0  0  0  0  0  0  0  0  0  0  0  0
   10.2573    8.3215   20.9827 C   0  0  0  0  0  0  0  0  0  0  0  0
   11.1606    5.9378   21.2366 N   0  0  0  0  0  0  0  0  0  0  0  0
    9.8932   11.6736   19.0677 O   0  0  0  0  0  0  0  0  0  0  0  0
    6.4470    4.5850   22.2321 C   0  0  0  0  0  0  0  0  0  0  0  0
    8.4619    6.9895   22.2968 C   0  0  0  0  0  0  0  0  0  0  0  0
   12.2747    7.5102   20.0420 C   0  0  0  0  0  0  0  0  0  0  0  0
   14.2544    6.2142   19.4191 C   0  0  0  0  0  0  0  0  0  0  0  0
   13.0695    6.3705   20.0375 N   0  0  0  0  0  0  0  0  0  0  0  0
    9.1913    8.0876   21.8361 N   0  0  0  0  0  0  0  0  0  0  0  0
   10.4739    9.4813   20.2889 C   0  0  0  0  0  0  0  0  0  0  0  0
    7.5551    7.1270   23.1200 O   0  0  0  0  0  0  0  0  0  0  0  0
  1 11  4  0
  1 21  4  0
  2  4  1  0
  2  8  1  0
  2 11  1  0
  3 10  4  0
  3 14  4  0
  4  5  1  0
  4 18  2  0
  6 12  1  0
  6 17  4  0
  6 23  4  0
  7  9  1  0
  7 13  4  0
  7 19  4  0
  9 20  1  0
 10 19  4  0
 11 25  4  0
 13 14  4  0
 15 16  4  0
 15 17  4  0
 15 21  4  0
 16 24  1  0
 16 25  4  0
 20 24  1  0
 20 26  2  0
 21 23  4  0
 22 23  1  0
M  END
$$$$

 Created by Python create_sdf_string function

 26 28  0  0  0  0  0  0  0  0999 V2000
   12.4616    8.6700   19.4180 N   0  0  0  0  0  0  0  0  0  0  0  0
   11.8329   10.8148   18.6769 N   0  0  0  0  0  0  0  0  0  0  0  0
    6.1021    2.5564   21.0678 C   0  0  0  0  0  0  0  0  0  0  0  0
   10.9097   11.8051   18.4804 C   0  0  0  0  0  0  0  0  0  0  0  0
   11.2280   12.9135   17.5669 C   0  0  0  0  0  0  0  0  0  0  0  0
   12.3782    5.4231   20.7777 C   0  0  0  0  0  0  0  0  0  0  0  0
    7.7365    4.6508   21.6987 C   0  0  0  0  0  0  0  0  0  0  0  0
   13.0186   11.0102   18.0020 C   0  0  0  0  0  0  0  0  0  0  0  0
    8.6628    5.7088   21.8871 N   0  0  0  0  0  0  0  0  0  0  0  0
    5.6516    3.5258   21.9140 C   0  0  0  0  0  0  0  0  0  0  0  0
   11.5863    9.6815   19.4539 C   0  0  0  0  0  0  0  0  0  0  0  0
   12.9648    4.1543   20.9205 C   0  0  0  0  0  0  0  0  0  0  0  0
    8.2089    3.6265   20.8929 C   0  0  0  0  0  0  0  0  0  0  0  0
    7.3827    2.5724   20.5432 C   0  0  0  0  0  0  0  0  0  0  0  0
   11.1529    7.2750   20.8025 C   0  0  0  0  0  0  0  0  0  0  0  0
   10.2573    8.3215   20.9827 C   0  0  0  0  0  0  0  0  0  0  0  0
   11.1606    5.9378   21.2366 N   0  0  0  0  0  0  0  0  0  0  0  0
    9.8932   11.6736   19.0677 O   0  0  0  0  0  0  0  0  0  0  0  0
    6.4470    4.5850   22.2321 C   0  0  0  0  0  0  0  0  0  0  0  0
    8.4619    6.9895   22.2968 C   0  0  0  0  0  0  0  0  0  0  0  0
   12.2747    7.5102   20.0420 C   0  0  0  0  0  0  0  0  0  0  0  0
   14.2544    6.2142   19.4191 C   0  0  0  0  0  0  0  0  0  0  0  0
   13.0695    6.3705   20.0375 N   0  0  0  0  0  0  0  0  0  0  0  0
    9.1913    8.0876   21.8361 N   0  0  0  0  0  0  0  0  0  0  0  0
   10.4739    9.4813   20.2889 C   0  0  0  0  0  0  0  0  0  0  0  0
    7.5551    7.1270   23.1200 O   0  0  0  0  0  0  0  0  0  0  0  0
  1 11  4  0
  1 21  4  0
  2  4  1  0
  2  8  1  0
  2 11  1  0
  3 10  4  0
  3 14  4  0
  4  5  1  0
  4 18  2  0
  6 12  1  0
  6 17  4  0
  6 23  4  0
  7  9  1  0
  7 13  4  0
  7 19  4  0
  9 20  1  0
 10 19  4  0
 11 25  4  0
 13 14  4  0
 15 16  4  0
 15 17  4  0
 15 21  4  0
 16 24  1  0
 16 25  4  0
 20 24  1  0
 20 26  2  0
 21 23  4  0
 22 23  1  0
M  END
$$$$

 Created by Python create_sdf_string function

 26 28  0  0  0  0  0  0  0  0999 V2000
   12.4616    8.6700   19.4180 N   0  0  0  0  0  0  0  0  0  0  0  0
   11.8329   10.8148   18.6769 N   0  0  0  0  0  0  0  0  0  0  0  0
    6.1021    2.5564   21.0678 C   0  0  0  0  0  0  0  0  0  0  0  0
   10.9097   11.8051   18.4804 C   0  0  0  0  0  0  0  0  0  0  0  0
   11.2280   12.9135   17.5669 C   0  0  0  0  0  0  0  0  0  0  0  0
   12.3782    5.4231   20.7777 C   0  0  0  0  0  0  0  0  0  0  0  0
    7.7365    4.6508   21.6987 C   0  0  0  0  0  0  0  0  0  0  0  0
   13.0186   11.0102   18.0020 C   0  0  0  0  0  0  0  0  0  0  0  0
    8.6628    5.7088   21.8871 N   0  0  0  0  0  0  0  0  0  0  0  0
    5.6516    3.5258   21.9140 C   0  0  0  0  0  0  0  0  0  0  0  0
   11.5863    9.6815   19.4539 C   0  0  0  0  0  0  0  0  0  0  0  0
   12.9648    4.1543   20.9205 C   0  0  0  0  0  0  0  0  0  0  0  0
    8.2089    3.6265   20.8929 C   0  0  0  0  0  0  0  0  0  0  0  0
    7.3827    2.5724   20.5432 C   0  0  0  0  0  0  0  0  0  0  0  0
   11.1529    7.2750   20.8025 C   0  0  0  0  0  0  0  0  0  0  0  0
   10.2573    8.3215   20.9827 C   0  0  0  0  0  0  0  0  0  0  0  0
   11.1606    5.9378   21.2366 N   0  0  0  0  0  0  0  0  0  0  0  0
    9.8932   11.6736   19.0677 O   0  0  0  0  0  0  0  0  0  0  0  0
    6.4470    4.5850   22.2321 C   0  0  0  0  0  0  0  0  0  0  0  0
    8.4619    6.9895   22.2968 C   0  0  0  0  0  0  0  0  0  0  0  0
   12.2747    7.5102   20.0420 C   0  0  0  0  0  0  0  0  0  0  0  0
   14.2544    6.2142   19.4191 C   0  0  0  0  0  0  0  0  0  0  0  0
   13.0695    6.3705   20.0375 N   0  0  0  0  0  0  0  0  0  0  0  0
    9.1913    8.0876   21.8361 N   0  0  0  0  0  0  0  0  0  0  0  0
   10.4739    9.4813   20.2889 C   0  0  0  0  0  0  0  0  0  0  0  0
    7.5551    7.1270   23.1200 O   0  0  0  0  0  0  0  0  0  0  0  0
  1 11  4  0
  1 21  4  0
  2  4  1  0
  2  8  1  0
  2 11  1  0
  3 10  4  0
  3 14  4  0
  4  5  1  0
  4 18  2  0
  6 12  1  0
  6 17  4  0
  6 23  4  0
  7  9  1  0
  7 13  4  0
  7 19  4  0
  9 20  1  0
 10 19  4  0
 11 25  4  0
 13 14  4  0
 15 16  4  0
 15 17  4  0
 15 21  4  0
 16 24  1  0
 16 25  4  0
 20 24  1  0
 20 26  2  0
 21 23  4  0
 22 23  1  0
M  END
$$$$

 Created by Python create_sdf_string function

 26 28  0  0  0  0  0  0  0  0999 V2000
   12.4616    8.6700   19.4180 N   0  0  0  0  0  0  0  0  0  0  0  0
   11.8329   10.8148   18.6769 N   0  0  0  0  0  0  0  0  0  0  0  0
    6.1021    2.5564   21.0678 C   0  0  0  0  0  0  0  0  0  0  0  0
   10.9097   11.8051   18.4804 C   0  0  0  0  0  0  0  0  0  0  0  0
   11.2280   12.9135   17.5669 C   0  0  0  0  0  0  0  0  0  0  0  0
   12.3782    5.4231   20.7777 C   0  0  0  0  0  0  0  0  0  0  0  0
    7.7365    4.6508   21.6987 C   0  0  0  0  0  0  0  0  0  0  0  0
   13.0186   11.0102   18.0020 C   0  0  0  0  0  0  0  0  0  0  0  0
    8.6628    5.7088   21.8871 N   0  0  0  0  0  0  0  0  0  0  0  0
    5.6516    3.5258   21.9140 C   0  0  0  0  0  0  0  0  0  0  0  0
   11.5863    9.6815   19.4539 C   0  0  0  0  0  0  0  0  0  0  0  0
   12.9648    4.1543   20.9205 C   0  0  0  0  0  0  0  0  0  0  0  0
    8.2089    3.6265   20.8929 C   0  0  0  0  0  0  0  0  0  0  0  0
    7.3827    2.5724   20.5432 C   0  0  0  0  0  0  0  0  0  0  0  0
   11.1529    7.2750   20.8025 C   0  0  0  0  0  0  0  0  0  0  0  0
   10.2573    8.3215   20.9827 C   0  0  0  0  0  0  0  0  0  0  0  0
   11.1606    5.9378   21.2366 N   0  0  0  0  0  0  0  0  0  0  0  0
    9.8932   11.6736   19.0677 O   0  0  0  0  0  0  0  0  0  0  0  0
    6.4470    4.5850   22.2321 C   0  0  0  0  0  0  0  0  0  0  0  0
    8.4619    6.9895   22.2968 C   0  0  0  0  0  0  0  0  0  0  0  0
   12.2747    7.5102   20.0420 C   0  0  0  0  0  0  0  0  0  0  0  0
   14.2544    6.2142   19.4191 C   0  0  0  0  0  0  0  0  0  0  0  0
   13.0695    6.3705   20.0375 N   0  0  0  0  0  0  0  0  0  0  0  0
    9.1913    8.0876   21.8361 N   0  0  0  0  0  0  0  0  0  0  0  0
   10.4739    9.4813   20.2889 C   0  0  0  0  0  0  0  0  0  0  0  0
    7.5551    7.1270   23.1200 O   0  0  0  0  0  0  0  0  0  0  0  0
  1 11  4  0
  1 21  4  0
  2  4  1  0
  2  8  1  0
  2 11  1  0
  3 10  4  0
  3 14  4  0
  4  5  1  0
  4 18  2  0
  6 12  1  0
  6 17  4  0
  6 23  4  0
  7  9  1  0
  7 13  4  0
  7 19  4  0
  9 20  1  0
 10 19  4  0
 11 25  4  0
 13 14  4  0
 15 16  4  0
 15 17  4  0
 15 21  4  0
 16 24  1  0
 16 25  4  0
 20 24  1  0
 20 26  2  0
 21 23  4  0
 22 23  1  0
M  END
$$$$

 Created by Python create_sdf_string function

 26 28  0  0  0  0  0  0  0  0999 V2000
   12.4616    8.6700   19.4180 N   0  0  0  0  0  0  0  0  0  0  0  0
   11.8329   10.8148   18.6769 N   0  0  0  0  0  0  0  0  0  0  0  0
    6.1021    2.5564   21.0678 C   0  0  0  0  0  0  0  0  0  0  0  0
   10.9097   11.8051   18.4804 C   0  0  0  0  0  0  0  0  0  0  0  0
   11.2280   12.9135   17.5669 C   0  0  0  0  0  0  0  0  0  0  0  0
   12.3782    5.4231   20.7777 C   0  0  0  0  0  0  0  0  0  0  0  0
    7.7365    4.6508   21.6987 C   0  0  0  0  0  0  0  0  0  0  0  0
   13.0186   11.0102   18.0020 C   0  0  0  0  0  0  0  0  0  0  0  0
    8.6628    5.7088   21.8871 N   0  0  0  0  0  0  0  0  0  0  0  0
    5.6516    3.5258   21.9140 C   0  0  0  0  0  0  0  0  0  0  0  0
   11.5863    9.6815   19.4539 C   0  0  0  0  0  0  0  0  0  0  0  0
   12.9648    4.1543   20.9205 C   0  0  0  0  0  0  0  0  0  0  0  0
    8.2089    3.6265   20.8929 C   0  0  0  0  0  0  0  0  0  0  0  0
    7.3827    2.5724   20.5432 C   0  0  0  0  0  0  0  0  0  0  0  0
   11.1529    7.2750   20.8025 C   0  0  0  0  0  0  0  0  0  0  0  0
   10.2573    8.3215   20.9827 C   0  0  0  0  0  0  0  0  0  0  0  0
   11.1606    5.9378   21.2366 N   0  0  0  0  0  0  0  0  0  0  0  0
    9.8932   11.6736   19.0677 O   0  0  0  0  0  0  0  0  0  0  0  0
    6.4470    4.5850   22.2321 C   0  0  0  0  0  0  0  0  0  0  0  0
    8.4619    6.9895   22.2968 C   0  0  0  0  0  0  0  0  0  0  0  0
   12.2747    7.5102   20.0420 C   0  0  0  0  0  0  0  0  0  0  0  0
   14.2544    6.2142   19.4191 C   0  0  0  0  0  0  0  0  0  0  0  0
   13.0695    6.3705   20.0375 N   0  0  0  0  0  0  0  0  0  0  0  0
    9.1913    8.0876   21.8361 N   0  0  0  0  0  0  0  0  0  0  0  0
   10.4739    9.4813   20.2889 C   0  0  0  0  0  0  0  0  0  0  0  0
    7.5551    7.1270   23.1200 O   0  0  0  0  0  0  0  0  0  0  0  0
  1 11  4  0
  1 21  4  0
  2  4  1  0
  2  8  1  0
  2 11  1  0
  3 10  4  0
  3 14  4  0
  4  5  1  0
  4 18  2  0
  6 12  1  0
  6 17  4  0
  6 23  4  0
  7  9  1  0
  7 13  4  0
  7 19  4  0
  9 20  1  0
 10 19  4  0
 11 25  4  0
 13 14  4  0
 15 16  4  0
 15 17  4  0
 15 21  4  0
 16 24  1  0
 16 25  4  0
 20 24  1  0
 20 26  2  0
 21 23  4  0
 22 23  1  0
M  END
$$$$

 Created by Python create_sdf_string function

 26 28  0  0  0  0  0  0  0  0999 V2000
   12.4616    8.6700   19.4180 N   0  0  0  0  0  0  0  0  0  0  0  0
   11.8329   10.8148   18.6769 N   0  0  0  0  0  0  0  0  0  0  0  0
    6.1021    2.5564   21.0678 C   0  0  0  0  0  0  0  0  0  0  0  0
   10.9097   11.8051   18.4804 C   0  0  0  0  0  0  0  0  0  0  0  0
   11.2280   12.9135   17.5669 C   0  0  0  0  0  0  0  0  0  0  0  0
   12.3782    5.4231   20.7777 C   0  0  0  0  0  0  0  0  0  0  0  0
    7.7365    4.6508   21.6987 C   0  0  0  0  0  0  0  0  0  0  0  0
   13.0186   11.0102   18.0020 C   0  0  0  0  0  0  0  0  0  0  0  0
    8.6628    5.7088   21.8871 N   0  0  0  0  0  0  0  0  0  0  0  0
    5.6516    3.5258   21.9140 C   0  0  0  0  0  0  0  0  0  0  0  0
   11.5863    9.6815   19.4539 C   0  0  0  0  0  0  0  0  0  0  0  0
   12.9648    4.1543   20.9205 C   0  0  0  0  0  0  0  0  0  0  0  0
    8.2089    3.6265   20.8929 C   0  0  0  0  0  0  0  0  0  0  0  0
    7.3827    2.5724   20.5432 C   0  0  0  0  0  0  0  0  0  0  0  0
   11.1529    7.2750   20.8025 C   0  0  0  0  0  0  0  0  0  0  0  0
   10.2573    8.3215   20.9827 C   0  0  0  0  0  0  0  0  0  0  0  0
   11.1606    5.9378   21.2366 N   0  0  0  0  0  0  0  0  0  0  0  0
    9.8932   11.6736   19.0677 O   0  0  0  0  0  0  0  0  0  0  0  0
    6.4470    4.5850   22.2321 C   0  0  0  0  0  0  0  0  0  0  0  0
    8.4619    6.9895   22.2968 C   0  0  0  0  0  0  0  0  0  0  0  0
   12.2747    7.5102   20.0420 C   0  0  0  0  0  0  0  0  0  0  0  0
   14.2544    6.2142   19.4191 C   0  0  0  0  0  0  0  0  0  0  0  0
   13.0695    6.3705   20.0375 N   0  0  0  0  0  0  0  0  0  0  0  0
    9.1913    8.0876   21.8361 N   0  0  0  0  0  0  0  0  0  0  0  0
   10.4739    9.4813   20.2889 C   0  0  0  0  0  0  0  0  0  0  0  0
    7.5551    7.1270   23.1200 O   0  0  0  0  0  0  0  0  0  0  0  0
  1 11  4  0
  1 21  4  0
  2  4  1  0
  2  8  1  0
  2 11  1  0
  3 10  4  0
  3 14  4  0
  4  5  1  0
  4 18  2  0
  6 12  1  0
  6 17  4  0
  6 23  4  0
  7  9  1  0
  7 13  4  0
  7 19  4  0
  9 20  1  0
 10 19  4  0
 11 25  4  0
 13 14  4  0
 15 16  4  0
 15 17  4  0
 15 21  4  0
 16 24  1  0
 16 25  4  0
 20 24  1  0
 20 26  2  0
 21 23  4  0
 22 23  1  0
M  END
$$$$

 Created by Python create_sdf_string function

 26 28  0  0  0  0  0  0  0  0999 V2000
   12.4616    8.6700   19.4180 N   0  0  0  0  0  0  0  0  0  0  0  0
   11.8329   10.8148   18.6769 N   0  0  0  0  0  0  0  0  0  0  0  0
    6.1021    2.5564   21.0678 C   0  0  0  0  0  0  0  0  0  0  0  0
   10.9097   11.8051   18.4804 C   0  0  0  0  0  0  0  0  0  0  0  0
   11.2280   12.9135   17.5669 C   0  0  0  0  0  0  0  0  0  0  0  0
   12.3782    5.4231   20.7777 C   0  0  0  0  0  0  0  0  0  0  0  0
    7.7365    4.6508   21.6987 C   0  0  0  0  0  0  0  0  0  0  0  0
   13.0186   11.0102   18.0020 C   0  0  0  0  0  0  0  0  0  0  0  0
    8.6628    5.7088   21.8871 N   0  0  0  0  0  0  0  0  0  0  0  0
    5.6516    3.5258   21.9140 C   0  0  0  0  0  0  0  0  0  0  0  0
   11.5863    9.6815   19.4539 C   0  0  0  0  0  0  0  0  0  0  0  0
   12.9648    4.1543   20.9205 C   0  0  0  0  0  0  0  0  0  0  0  0
    8.2089    3.6265   20.8929 C   0  0  0  0  0  0  0  0  0  0  0  0
    7.3827    2.5724   20.5432 C   0  0  0  0  0  0  0  0  0  0  0  0
   11.1529    7.2750   20.8025 C   0  0  0  0  0  0  0  0  0  0  0  0
   10.2573    8.3215   20.9827 C   0  0  0  0  0  0  0  0  0  0  0  0
   11.1606    5.9378   21.2366 N   0  0  0  0  0  0  0  0  0  0  0  0
    9.8932   11.6736   19.0677 O   0  0  0  0  0  0  0  0  0  0  0  0
    6.4470    4.5850   22.2321 C   0  0  0  0  0  0  0  0  0  0  0  0
    8.4619    6.9895   22.2968 C   0  0  0  0  0  0  0  0  0  0  0  0
   12.2747    7.5102   20.0420 C   0  0  0  0  0  0  0  0  0  0  0  0
   14.2544    6.2142   19.4191 C   0  0  0  0  0  0  0  0  0  0  0  0
   13.0695    6.3705   20.0375 N   0  0  0  0  0  0  0  0  0  0  0  0
    9.1913    8.0876   21.8361 N   0  0  0  0  0  0  0  0  0  0  0  0
   10.4739    9.4813   20.2889 C   0  0  0  0  0  0  0  0  0  0  0  0
    7.5551    7.1270   23.1200 O   0  0  0  0  0  0  0  0  0  0  0  0
  1 11  4  0
  1 21  4  0
  2  4  1  0
  2  8  1  0
  2 11  1  0
  3 10  4  0
  3 14  4  0
  4  5  1  0
  4 18  2  0
  6 12  1  0
  6 17  4  0
  6 23  4  0
  7  9  1  0
  7 13  4  0
  7 19  4  0
  9 20  1  0
 10 19  4  0
 11 25  4  0
 13 14  4  0
 15 16  4  0
 15 17  4  0
 15 21  4  0
 16 24  1  0
 16 25  4  0
 20 24  1  0
 20 26  2  0
 21 23  4  0
 22 23  1  0
M  END
$$$$

 Created by Python create_sdf_string function

 26 28  0  0  0  0  0  0  0  0999 V2000
   12.4616    8.6700   19.4180 N   0  0  0  0  0  0  0  0  0  0  0  0
   11.8329   10.8148   18.6769 N   0  0  0  0  0  0  0  0  0  0  0  0
    6.1021    2.5564   21.0678 C   0  0  0  0  0  0  0  0  0  0  0  0
   10.9097   11.8051   18.4804 C   0  0  0  0  0  0  0  0  0  0  0  0
   11.2280   12.9135   17.5669 C   0  0  0  0  0  0  0  0  0  0  0  0
   12.3782    5.4231   20.7777 C   0  0  0  0  0  0  0  0  0  0  0  0
    7.7365    4.6508   21.6987 C   0  0  0  0  0  0  0  0  0  0  0  0
   13.0186   11.0102   18.0020 C   0  0  0  0  0  0  0  0  0  0  0  0
    8.6628    5.7088   21.8871 N   0  0  0  0  0  0  0  0  0  0  0  0
    5.6516    3.5258   21.9140 C   0  0  0  0  0  0  0  0  0  0  0  0
   11.5863    9.6815   19.4539 C   0  0  0  0  0  0  0  0  0  0  0  0
   12.9648    4.1543   20.9205 C   0  0  0  0  0  0  0  0  0  0  0  0
    8.2089    3.6265   20.8929 C   0  0  0  0  0  0  0  0  0  0  0  0
    7.3827    2.5724   20.5432 C   0  0  0  0  0  0  0  0  0  0  0  0
   11.1529    7.2750   20.8025 C   0  0  0  0  0  0  0  0  0  0  0  0
   10.2573    8.3215   20.9827 C   0  0  0  0  0  0  0  0  0  0  0  0
   11.1606    5.9378   21.2366 N   0  0  0  0  0  0  0  0  0  0  0  0
    9.8932   11.6736   19.0677 O   0  0  0  0  0  0  0  0  0  0  0  0
    6.4470    4.5850   22.2321 C   0  0  0  0  0  0  0  0  0  0  0  0
    8.4619    6.9895   22.2968 C   0  0  0  0  0  0  0  0  0  0  0  0
   12.2747    7.5102   20.0420 C   0  0  0  0  0  0  0  0  0  0  0  0
   14.2544    6.2142   19.4191 C   0  0  0  0  0  0  0  0  0  0  0  0
   13.0695    6.3705   20.0375 N   0  0  0  0  0  0  0  0  0  0  0  0
    9.1913    8.0876   21.8361 N   0  0  0  0  0  0  0  0  0  0  0  0
   10.4739    9.4813   20.2889 C   0  0  0  0  0  0  0  0  0  0  0  0
    7.5551    7.1270   23.1200 O   0  0  0  0  0  0  0  0  0  0  0  0
  1 11  4  0
  1 21  4  0
  2  4  1  0
  2  8  1  0
  2 11  1  0
  3 10  4  0
  3 14  4  0
  4  5  1  0
  4 18  2  0
  6 12  1  0
  6 17  4  0
  6 23  4  0
  7  9  1  0
  7 13  4  0
  7 19  4  0
  9 20  1  0
 10 19  4  0
 11 25  4  0
 13 14  4  0
 15 16  4  0
 15 17  4  0
 15 21  4  0
 16 24  1  0
 16 25  4  0
 20 24  1  0
 20 26  2  0
 21 23  4  0
 22 23  1  0
M  END
$$$$

 Created by Python create_sdf_string function

 26 28  0  0  0  0  0  0  0  0999 V2000
   12.4616    8.6700   19.4180 N   0  0  0  0  0  0  0  0  0  0  0  0
   11.8329   10.8148   18.6769 N   0  0  0  0  0  0  0  0  0  0  0  0
    6.1021    2.5564   21.0678 C   0  0  0  0  0  0  0  0  0  0  0  0
   10.9097   11.8051   18.4804 C   0  0  0  0  0  0  0  0  0  0  0  0
   11.2280   12.9135   17.5669 C   0  0  0  0  0  0  0  0  0  0  0  0
   12.3782    5.4231   20.7777 C   0  0  0  0  0  0  0  0  0  0  0  0
    7.7365    4.6508   21.6987 C   0  0  0  0  0  0  0  0  0  0  0  0
   13.0186   11.0102   18.0020 C   0  0  0  0  0  0  0  0  0  0  0  0
    8.6628    5.7088   21.8871 N   0  0  0  0  0  0  0  0  0  0  0  0
    5.6516    3.5258   21.9140 C   0  0  0  0  0  0  0  0  0  0  0  0
   11.5863    9.6815   19.4539 C   0  0  0  0  0  0  0  0  0  0  0  0
   12.9648    4.1543   20.9205 C   0  0  0  0  0  0  0  0  0  0  0  0
    8.2089    3.6265   20.8929 C   0  0  0  0  0  0  0  0  0  0  0  0
    7.3827    2.5724   20.5432 C   0  0  0  0  0  0  0  0  0  0  0  0
   11.1529    7.2750   20.8025 C   0  0  0  0  0  0  0  0  0  0  0  0
   10.2573    8.3215   20.9827 C   0  0  0  0  0  0  0  0  0  0  0  0
   11.1606    5.9378   21.2366 N   0  0  0  0  0  0  0  0  0  0  0  0
    9.8932   11.6736   19.0677 O   0  0  0  0  0  0  0  0  0  0  0  0
    6.4470    4.5850   22.2321 C   0  0  0  0  0  0  0  0  0  0  0  0
    8.4619    6.9895   22.2968 C   0  0  0  0  0  0  0  0  0  0  0  0
   12.2747    7.5102   20.0420 C   0  0  0  0  0  0  0  0  0  0  0  0
   14.2544    6.2142   19.4191 C   0  0  0  0  0  0  0  0  0  0  0  0
   13.0695    6.3705   20.0375 N   0  0  0  0  0  0  0  0  0  0  0  0
    9.1913    8.0876   21.8361 N   0  0  0  0  0  0  0  0  0  0  0  0
   10.4739    9.4813   20.2889 C   0  0  0  0  0  0  0  0  0  0  0  0
    7.5551    7.1270   23.1200 O   0  0  0  0  0  0  0  0  0  0  0  0
  1 11  4  0
  1 21  4  0
  2  4  1  0
  2  8  1  0
  2 11  1  0
  3 10  4  0
  3 14  4  0
  4  5  1  0
  4 18  2  0
  6 12  1  0
  6 17  4  0
  6 23  4  0
  7  9  1  0
  7 13  4  0
  7 19  4  0
  9 20  1  0
 10 19  4  0
 11 25  4  0
 13 14  4  0
 15 16  4  0
 15 17  4  0
 15 21  4  0
 16 24  1  0
 16 25  4  0
 20 24  1  0
 20 26  2  0
 21 23  4  0
 22 23  1  0
M  END
$$$$

 Created by Python create_sdf_string function

 26 28  0  0  0  0  0  0  0  0999 V2000
   12.4616    8.6700   19.4180 N   0  0  0  0  0  0  0  0  0  0  0  0
   11.8329   10.8148   18.6769 N   0  0  0  0  0  0  0  0  0  0  0  0
    6.1021    2.5564   21.0678 C   0  0  0  0  0  0  0  0  0  0  0  0
   10.9097   11.8051   18.4804 C   0  0  0  0  0  0  0  0  0  0  0  0
   11.2280   12.9135   17.5669 C   0  0  0  0  0  0  0  0  0  0  0  0
   12.3782    5.4231   20.7777 C   0  0  0  0  0  0  0  0  0  0  0  0
    7.7365    4.6508   21.6987 C   0  0  0  0  0  0  0  0  0  0  0  0
   13.0186   11.0102   18.0020 C   0  0  0  0  0  0  0  0  0  0  0  0
    8.6628    5.7088   21.8871 N   0  0  0  0  0  0  0  0  0  0  0  0
    5.6516    3.5258   21.9140 C   0  0  0  0  0  0  0  0  0  0  0  0
   11.5863    9.6815   19.4539 C   0  0  0  0  0  0  0  0  0  0  0  0
   12.9648    4.1543   20.9205 C   0  0  0  0  0  0  0  0  0  0  0  0
    8.2089    3.6265   20.8929 C   0  0  0  0  0  0  0  0  0  0  0  0
    7.3827    2.5724   20.5432 C   0  0  0  0  0  0  0  0  0  0  0  0
   11.1529    7.2750   20.8025 C   0  0  0  0  0  0  0  0  0  0  0  0
   10.2573    8.3215   20.9827 C   0  0  0  0  0  0  0  0  0  0  0  0
   11.1606    5.9378   21.2366 N   0  0  0  0  0  0  0  0  0  0  0  0
    9.8932   11.6736   19.0677 O   0  0  0  0  0  0  0  0  0  0  0  0
    6.4470    4.5850   22.2321 C   0  0  0  0  0  0  0  0  0  0  0  0
    8.4619    6.9895   22.2968 C   0  0  0  0  0  0  0  0  0  0  0  0
   12.2747    7.5102   20.0420 C   0  0  0  0  0  0  0  0  0  0  0  0
   14.2544    6.2142   19.4191 C   0  0  0  0  0  0  0  0  0  0  0  0
   13.0695    6.3705   20.0375 N   0  0  0  0  0  0  0  0  0  0  0  0
    9.1913    8.0876   21.8361 N   0  0  0  0  0  0  0  0  0  0  0  0
   10.4739    9.4813   20.2889 C   0  0  0  0  0  0  0  0  0  0  0  0
    7.5551    7.1270   23.1200 O   0  0  0  0  0  0  0  0  0  0  0  0
  1 11  4  0
  1 21  4  0
  2  4  1  0
  2  8  1  0
  2 11  1  0
  3 10  4  0
  3 14  4  0
  4  5  1  0
  4 18  2  0
  6 12  1  0
  6 17  4  0
  6 23  4  0
  7  9  1  0
  7 13  4  0
  7 19  4  0
  9 20  1  0
 10 19  4  0
 11 25  4  0
 13 14  4  0
 15 16  4  0
 15 17  4  0
 15 21  4  0
 16 24  1  0
 16 25  4  0
 20 24  1  0
 20 26  2  0
 21 23  4  0
 22 23  1  0
M  END
$$$$

 Created by Python create_sdf_string function

 26 28  0  0  0  0  0  0  0  0999 V2000
   12.4616    8.6700   19.4180 N   0  0  0  0  0  0  0  0  0  0  0  0
   11.8329   10.8148   18.6769 N   0  0  0  0  0  0  0  0  0  0  0  0
    6.1021    2.5564   21.0678 C   0  0  0  0  0  0  0  0  0  0  0  0
   10.9097   11.8051   18.4804 C   0  0  0  0  0  0  0  0  0  0  0  0
   11.2280   12.9135   17.5669 C   0  0  0  0  0  0  0  0  0  0  0  0
   12.3782    5.4231   20.7777 C   0  0  0  0  0  0  0  0  0  0  0  0
    7.7365    4.6508   21.6987 C   0  0  0  0  0  0  0  0  0  0  0  0
   13.0186   11.0102   18.0020 C   0  0  0  0  0  0  0  0  0  0  0  0
    8.6628    5.7088   21.8871 N   0  0  0  0  0  0  0  0  0  0  0  0
    5.6516    3.5258   21.9140 C   0  0  0  0  0  0  0  0  0  0  0  0
   11.5863    9.6815   19.4539 C   0  0  0  0  0  0  0  0  0  0  0  0
   12.9648    4.1543   20.9205 C   0  0  0  0  0  0  0  0  0  0  0  0
    8.2089    3.6265   20.8929 C   0  0  0  0  0  0  0  0  0  0  0  0
    7.3827    2.5724   20.5432 C   0  0  0  0  0  0  0  0  0  0  0  0
   11.1529    7.2750   20.8025 C   0  0  0  0  0  0  0  0  0  0  0  0
   10.2573    8.3215   20.9827 C   0  0  0  0  0  0  0  0  0  0  0  0
   11.1606    5.9378   21.2366 N   0  0  0  0  0  0  0  0  0  0  0  0
    9.8932   11.6736   19.0677 O   0  0  0  0  0  0  0  0  0  0  0  0
    6.4470    4.5850   22.2321 C   0  0  0  0  0  0  0  0  0  0  0  0
    8.4619    6.9895   22.2968 C   0  0  0  0  0  0  0  0  0  0  0  0
   12.2747    7.5102   20.0420 C   0  0  0  0  0  0  0  0  0  0  0  0
   14.2544    6.2142   19.4191 C   0  0  0  0  0  0  0  0  0  0  0  0
   13.0695    6.3705   20.0375 N   0  0  0  0  0  0  0  0  0  0  0  0
    9.1913    8.0876   21.8361 N   0  0  0  0  0  0  0  0  0  0  0  0
   10.4739    9.4813   20.2889 C   0  0  0  0  0  0  0  0  0  0  0  0
    7.5551    7.1270   23.1200 O   0  0  0  0  0  0  0  0  0  0  0  0
  1 11  4  0
  1 21  4  0
  2  4  1  0
  2  8  1  0
  2 11  1  0
  3 10  4  0
  3 14  4  0
  4  5  1  0
  4 18  2  0
  6 12  1  0
  6 17  4  0
  6 23  4  0
  7  9  1  0
  7 13  4  0
  7 19  4  0
  9 20  1  0
 10 19  4  0
 11 25  4  0
 13 14  4  0
 15 16  4  0
 15 17  4  0
 15 21  4  0
 16 24  1  0
 16 25  4  0
 20 24  1  0
 20 26  2  0
 21 23  4  0
 22 23  1  0
M  END
$$$$

 Created by Python create_sdf_string function

 26 28  0  0  0  0  0  0  0  0999 V2000
   12.4616    8.6700   19.4180 N   0  0  0  0  0  0  0  0  0  0  0  0
   11.8329   10.8148   18.6769 N   0  0  0  0  0  0  0  0  0  0  0  0
    6.1021    2.5564   21.0678 C   0  0  0  0  0  0  0  0  0  0  0  0
   10.9097   11.8051   18.4804 C   0  0  0  0  0  0  0  0  0  0  0  0
   11.2280   12.9135   17.5669 C   0  0  0  0  0  0  0  0  0  0  0  0
   12.3782    5.4231   20.7777 C   0  0  0  0  0  0  0  0  0  0  0  0
    7.7365    4.6508   21.6987 C   0  0  0  0  0  0  0  0  0  0  0  0
   13.0186   11.0102   18.0020 C   0  0  0  0  0  0  0  0  0  0  0  0
    8.6628    5.7088   21.8871 N   0  0  0  0  0  0  0  0  0  0  0  0
    5.6516    3.5258   21.9140 C   0  0  0  0  0  0  0  0  0  0  0  0
   11.5863    9.6815   19.4539 C   0  0  0  0  0  0  0  0  0  0  0  0
   12.9648    4.1543   20.9205 C   0  0  0  0  0  0  0  0  0  0  0  0
    8.2089    3.6265   20.8929 C   0  0  0  0  0  0  0  0  0  0  0  0
    7.3827    2.5724   20.5432 C   0  0  0  0  0  0  0  0  0  0  0  0
   11.1529    7.2750   20.8025 C   0  0  0  0  0  0  0  0  0  0  0  0
   10.2573    8.3215   20.9827 C   0  0  0  0  0  0  0  0  0  0  0  0
   11.1606    5.9378   21.2366 N   0  0  0  0  0  0  0  0  0  0  0  0
    9.8932   11.6736   19.0677 O   0  0  0  0  0  0  0  0  0  0  0  0
    6.4470    4.5850   22.2321 C   0  0  0  0  0  0  0  0  0  0  0  0
    8.4619    6.9895   22.2968 C   0  0  0  0  0  0  0  0  0  0  0  0
   12.2747    7.5102   20.0420 C   0  0  0  0  0  0  0  0  0  0  0  0
   14.2544    6.2142   19.4191 C   0  0  0  0  0  0  0  0  0  0  0  0
   13.0695    6.3705   20.0375 N   0  0  0  0  0  0  0  0  0  0  0  0
    9.1913    8.0876   21.8361 N   0  0  0  0  0  0  0  0  0  0  0  0
   10.4739    9.4813   20.2889 C   0  0  0  0  0  0  0  0  0  0  0  0
    7.5551    7.1270   23.1200 O   0  0  0  0  0  0  0  0  0  0  0  0
  1 11  4  0
  1 21  4  0
  2  4  1  0
  2  8  1  0
  2 11  1  0
  3 10  4  0
  3 14  4  0
  4  5  1  0
  4 18  2  0
  6 12  1  0
  6 17  4  0
  6 23  4  0
  7  9  1  0
  7 13  4  0
  7 19  4  0
  9 20  1  0
 10 19  4  0
 11 25  4  0
 13 14  4  0
 15 16  4  0
 15 17  4  0
 15 21  4  0
 16 24  1  0
 16 25  4  0
 20 24  1  0
 20 26  2  0
 21 23  4  0
 22 23  1  0
M  END
$$$$

 Created by Python create_sdf_string function

 26 28  0  0  0  0  0  0  0  0999 V2000
   12.4616    8.6700   19.4180 N   0  0  0  0  0  0  0  0  0  0  0  0
   11.8329   10.8148   18.6769 N   0  0  0  0  0  0  0  0  0  0  0  0
    6.1021    2.5564   21.0678 C   0  0  0  0  0  0  0  0  0  0  0  0
   10.9097   11.8051   18.4804 C   0  0  0  0  0  0  0  0  0  0  0  0
   11.2280   12.9135   17.5669 C   0  0  0  0  0  0  0  0  0  0  0  0
   12.3782    5.4231   20.7777 C   0  0  0  0  0  0  0  0  0  0  0  0
    7.7365    4.6508   21.6987 C   0  0  0  0  0  0  0  0  0  0  0  0
   13.0186   11.0102   18.0020 C   0  0  0  0  0  0  0  0  0  0  0  0
    8.6628    5.7088   21.8871 N   0  0  0  0  0  0  0  0  0  0  0  0
    5.6516    3.5258   21.9140 C   0  0  0  0  0  0  0  0  0  0  0  0
   11.5863    9.6815   19.4539 C   0  0  0  0  0  0  0  0  0  0  0  0
   12.9648    4.1543   20.9205 C   0  0  0  0  0  0  0  0  0  0  0  0
    8.2089    3.6265   20.8929 C   0  0  0  0  0  0  0  0  0  0  0  0
    7.3827    2.5724   20.5432 C   0  0  0  0  0  0  0  0  0  0  0  0
   11.1529    7.2750   20.8025 C   0  0  0  0  0  0  0  0  0  0  0  0
   10.2573    8.3215   20.9827 C   0  0  0  0  0  0  0  0  0  0  0  0
   11.1606    5.9378   21.2366 N   0  0  0  0  0  0  0  0  0  0  0  0
    9.8932   11.6736   19.0677 O   0  0  0  0  0  0  0  0  0  0  0  0
    6.4470    4.5850   22.2321 C   0  0  0  0  0  0  0  0  0  0  0  0
    8.4619    6.9895   22.2968 C   0  0  0  0  0  0  0  0  0  0  0  0
   12.2747    7.5102   20.0420 C   0  0  0  0  0  0  0  0  0  0  0  0
   14.2544    6.2142   19.4191 C   0  0  0  0  0  0  0  0  0  0  0  0
   13.0695    6.3705   20.0375 N   0  0  0  0  0  0  0  0  0  0  0  0
    9.1913    8.0876   21.8361 N   0  0  0  0  0  0  0  0  0  0  0  0
   10.4739    9.4813   20.2889 C   0  0  0  0  0  0  0  0  0  0  0  0
    7.5551    7.1270   23.1200 O   0  0  0  0  0  0  0  0  0  0  0  0
  1 11  4  0
  1 21  4  0
  2  4  1  0
  2  8  1  0
  2 11  1  0
  3 10  4  0
  3 14  4  0
  4  5  1  0
  4 18  2  0
  6 12  1  0
  6 17  4  0
  6 23  4  0
  7  9  1  0
  7 13  4  0
  7 19  4  0
  9 20  1  0
 10 19  4  0
 11 25  4  0
 13 14  4  0
 15 16  4  0
 15 17  4  0
 15 21  4  0
 16 24  1  0
 16 25  4  0
 20 24  1  0
 20 26  2  0
 21 23  4  0
 22 23  1  0
M  END
$$$$

 Created by Python create_sdf_string function

 26 28  0  0  0  0  0  0  0  0999 V2000
   12.4616    8.6700   19.4180 N   0  0  0  0  0  0  0  0  0  0  0  0
   11.8329   10.8148   18.6769 N   0  0  0  0  0  0  0  0  0  0  0  0
    6.1021    2.5564   21.0678 C   0  0  0  0  0  0  0  0  0  0  0  0
   10.9097   11.8051   18.4804 C   0  0  0  0  0  0  0  0  0  0  0  0
   11.2280   12.9135   17.5669 C   0  0  0  0  0  0  0  0  0  0  0  0
   12.3782    5.4231   20.7777 C   0  0  0  0  0  0  0  0  0  0  0  0
    7.7365    4.6508   21.6987 C   0  0  0  0  0  0  0  0  0  0  0  0
   13.0186   11.0102   18.0020 C   0  0  0  0  0  0  0  0  0  0  0  0
    8.6628    5.7088   21.8871 N   0  0  0  0  0  0  0  0  0  0  0  0
    5.6516    3.5258   21.9140 C   0  0  0  0  0  0  0  0  0  0  0  0
   11.5863    9.6815   19.4539 C   0  0  0  0  0  0  0  0  0  0  0  0
   12.9648    4.1543   20.9205 C   0  0  0  0  0  0  0  0  0  0  0  0
    8.2089    3.6265   20.8929 C   0  0  0  0  0  0  0  0  0  0  0  0
    7.3827    2.5724   20.5432 C   0  0  0  0  0  0  0  0  0  0  0  0
   11.1529    7.2750   20.8025 C   0  0  0  0  0  0  0  0  0  0  0  0
   10.2573    8.3215   20.9827 C   0  0  0  0  0  0  0  0  0  0  0  0
   11.1606    5.9378   21.2366 N   0  0  0  0  0  0  0  0  0  0  0  0
    9.8932   11.6736   19.0677 O   0  0  0  0  0  0  0  0  0  0  0  0
    6.4470    4.5850   22.2321 C   0  0  0  0  0  0  0  0  0  0  0  0
    8.4619    6.9895   22.2968 C   0  0  0  0  0  0  0  0  0  0  0  0
   12.2747    7.5102   20.0420 C   0  0  0  0  0  0  0  0  0  0  0  0
   14.2544    6.2142   19.4191 C   0  0  0  0  0  0  0  0  0  0  0  0
   13.0695    6.3705   20.0375 N   0  0  0  0  0  0  0  0  0  0  0  0
    9.1913    8.0876   21.8361 N   0  0  0  0  0  0  0  0  0  0  0  0
   10.4739    9.4813   20.2889 C   0  0  0  0  0  0  0  0  0  0  0  0
    7.5551    7.1270   23.1200 O   0  0  0  0  0  0  0  0  0  0  0  0
  1 11  4  0
  1 21  4  0
  2  4  1  0
  2  8  1  0
  2 11  1  0
  3 10  4  0
  3 14  4  0
  4  5  1  0
  4 18  2  0
  6 12  1  0
  6 17  4  0
  6 23  4  0
  7  9  1  0
  7 13  4  0
  7 19  4  0
  9 20  1  0
 10 19  4  0
 11 25  4  0
 13 14  4  0
 15 16  4  0
 15 17  4  0
 15 21  4  0
 16 24  1  0
 16 25  4  0
 20 24  1  0
 20 26  2  0
 21 23  4  0
 22 23  1  0
M  END
$$$$

 Created by Python create_sdf_string function

 26 28  0  0  0  0  0  0  0  0999 V2000
   12.4616    8.6700   19.4180 N   0  0  0  0  0  0  0  0  0  0  0  0
   11.8329   10.8148   18.6769 N   0  0  0  0  0  0  0  0  0  0  0  0
    6.1021    2.5564   21.0678 C   0  0  0  0  0  0  0  0  0  0  0  0
   10.9097   11.8051   18.4804 C   0  0  0  0  0  0  0  0  0  0  0  0
   11.2280   12.9135   17.5669 C   0  0  0  0  0  0  0  0  0  0  0  0
   12.3782    5.4231   20.7777 C   0  0  0  0  0  0  0  0  0  0  0  0
    7.7365    4.6508   21.6987 C   0  0  0  0  0  0  0  0  0  0  0  0
   13.0186   11.0102   18.0020 C   0  0  0  0  0  0  0  0  0  0  0  0
    8.6628    5.7088   21.8871 N   0  0  0  0  0  0  0  0  0  0  0  0
    5.6516    3.5258   21.9140 C   0  0  0  0  0  0  0  0  0  0  0  0
   11.5863    9.6815   19.4539 C   0  0  0  0  0  0  0  0  0  0  0  0
   12.9648    4.1543   20.9205 C   0  0  0  0  0  0  0  0  0  0  0  0
    8.2089    3.6265   20.8929 C   0  0  0  0  0  0  0  0  0  0  0  0
    7.3827    2.5724   20.5432 C   0  0  0  0  0  0  0  0  0  0  0  0
   11.1529    7.2750   20.8025 C   0  0  0  0  0  0  0  0  0  0  0  0
   10.2573    8.3215   20.9827 C   0  0  0  0  0  0  0  0  0  0  0  0
   11.1606    5.9378   21.2366 N   0  0  0  0  0  0  0  0  0  0  0  0
    9.8932   11.6736   19.0677 O   0  0  0  0  0  0  0  0  0  0  0  0
    6.4470    4.5850   22.2321 C   0  0  0  0  0  0  0  0  0  0  0  0
    8.4619    6.9895   22.2968 C   0  0  0  0  0  0  0  0  0  0  0  0
   12.2747    7.5102   20.0420 C   0  0  0  0  0  0  0  0  0  0  0  0
   14.2544    6.2142   19.4191 C   0  0  0  0  0  0  0  0  0  0  0  0
   13.0695    6.3705   20.0375 N   0  0  0  0  0  0  0  0  0  0  0  0
    9.1913    8.0876   21.8361 N   0  0  0  0  0  0  0  0  0  0  0  0
   10.4739    9.4813   20.2889 C   0  0  0  0  0  0  0  0  0  0  0  0
    7.5551    7.1270   23.1200 O   0  0  0  0  0  0  0  0  0  0  0  0
  1 11  4  0
  1 21  4  0
  2  4  1  0
  2  8  1  0
  2 11  1  0
  3 10  4  0
  3 14  4  0
  4  5  1  0
  4 18  2  0
  6 12  1  0
  6 17  4  0
  6 23  4  0
  7  9  1  0
  7 13  4  0
  7 19  4  0
  9 20  1  0
 10 19  4  0
 11 25  4  0
 13 14  4  0
 15 16  4  0
 15 17  4  0
 15 21  4  0
 16 24  1  0
 16 25  4  0
 20 24  1  0
 20 26  2  0
 21 23  4  0
 22 23  1  0
M  END
$$$$

 Created by Python create_sdf_string function

 26 28  0  0  0  0  0  0  0  0999 V2000
   12.4616    8.6700   19.4180 N   0  0  0  0  0  0  0  0  0  0  0  0
   11.8329   10.8148   18.6769 N   0  0  0  0  0  0  0  0  0  0  0  0
    6.1021    2.5564   21.0678 C   0  0  0  0  0  0  0  0  0  0  0  0
   10.9097   11.8051   18.4804 C   0  0  0  0  0  0  0  0  0  0  0  0
   11.2280   12.9135   17.5669 C   0  0  0  0  0  0  0  0  0  0  0  0
   12.3782    5.4231   20.7777 C   0  0  0  0  0  0  0  0  0  0  0  0
    7.7365    4.6508   21.6987 C   0  0  0  0  0  0  0  0  0  0  0  0
   13.0186   11.0102   18.0020 C   0  0  0  0  0  0  0  0  0  0  0  0
    8.6628    5.7088   21.8871 N   0  0  0  0  0  0  0  0  0  0  0  0
    5.6516    3.5258   21.9140 C   0  0  0  0  0  0  0  0  0  0  0  0
   11.5863    9.6815   19.4539 C   0  0  0  0  0  0  0  0  0  0  0  0
   12.9648    4.1543   20.9205 C   0  0  0  0  0  0  0  0  0  0  0  0
    8.2089    3.6265   20.8929 C   0  0  0  0  0  0  0  0  0  0  0  0
    7.3827    2.5724   20.5432 C   0  0  0  0  0  0  0  0  0  0  0  0
   11.1529    7.2750   20.8025 C   0  0  0  0  0  0  0  0  0  0  0  0
   10.2573    8.3215   20.9827 C   0  0  0  0  0  0  0  0  0  0  0  0
   11.1606    5.9378   21.2366 N   0  0  0  0  0  0  0  0  0  0  0  0
    9.8932   11.6736   19.0677 O   0  0  0  0  0  0  0  0  0  0  0  0
    6.4470    4.5850   22.2321 C   0  0  0  0  0  0  0  0  0  0  0  0
    8.4619    6.9895   22.2968 C   0  0  0  0  0  0  0  0  0  0  0  0
   12.2747    7.5102   20.0420 C   0  0  0  0  0  0  0  0  0  0  0  0
   14.2544    6.2142   19.4191 C   0  0  0  0  0  0  0  0  0  0  0  0
   13.0695    6.3705   20.0375 N   0  0  0  0  0  0  0  0  0  0  0  0
    9.1913    8.0876   21.8361 N   0  0  0  0  0  0  0  0  0  0  0  0
   10.4739    9.4813   20.2889 C   0  0  0  0  0  0  0  0  0  0  0  0
    7.5551    7.1270   23.1200 O   0  0  0  0  0  0  0  0  0  0  0  0
  1 11  4  0
  1 21  4  0
  2  4  1  0
  2  8  1  0
  2 11  1  0
  3 10  4  0
  3 14  4  0
  4  5  1  0
  4 18  2  0
  6 12  1  0
  6 17  4  0
  6 23  4  0
  7  9  1  0
  7 13  4  0
  7 19  4  0
  9 20  1  0
 10 19  4  0
 11 25  4  0
 13 14  4  0
 15 16  4  0
 15 17  4  0
 15 21  4  0
 16 24  1  0
 16 25  4  0
 20 24  1  0
 20 26  2  0
 21 23  4  0
 22 23  1  0
M  END
$$$$

 Created by Python create_sdf_string function

 26 28  0  0  0  0  0  0  0  0999 V2000
   12.4616    8.6700   19.4180 N   0  0  0  0  0  0  0  0  0  0  0  0
   11.8329   10.8148   18.6769 N   0  0  0  0  0  0  0  0  0  0  0  0
    6.1021    2.5564   21.0678 C   0  0  0  0  0  0  0  0  0  0  0  0
   10.9097   11.8051   18.4804 C   0  0  0  0  0  0  0  0  0  0  0  0
   11.2280   12.9135   17.5669 C   0  0  0  0  0  0  0  0  0  0  0  0
   12.3782    5.4231   20.7777 C   0  0  0  0  0  0  0  0  0  0  0  0
    7.7365    4.6508   21.6987 C   0  0  0  0  0  0  0  0  0  0  0  0
   13.0186   11.0102   18.0020 C   0  0  0  0  0  0  0  0  0  0  0  0
    8.6628    5.7088   21.8871 N   0  0  0  0  0  0  0  0  0  0  0  0
    5.6516    3.5258   21.9140 C   0  0  0  0  0  0  0  0  0  0  0  0
   11.5863    9.6815   19.4539 C   0  0  0  0  0  0  0  0  0  0  0  0
   12.9648    4.1543   20.9205 C   0  0  0  0  0  0  0  0  0  0  0  0
    8.2089    3.6265   20.8929 C   0  0  0  0  0  0  0  0  0  0  0  0
    7.3827    2.5724   20.5432 C   0  0  0  0  0  0  0  0  0  0  0  0
   11.1529    7.2750   20.8025 C   0  0  0  0  0  0  0  0  0  0  0  0
   10.2573    8.3215   20.9827 C   0  0  0  0  0  0  0  0  0  0  0  0
   11.1606    5.9378   21.2366 N   0  0  0  0  0  0  0  0  0  0  0  0
    9.8932   11.6736   19.0677 O   0  0  0  0  0  0  0  0  0  0  0  0
    6.4470    4.5850   22.2321 C   0  0  0  0  0  0  0  0  0  0  0  0
    8.4619    6.9895   22.2968 C   0  0  0  0  0  0  0  0  0  0  0  0
   12.2747    7.5102   20.0420 C   0  0  0  0  0  0  0  0  0  0  0  0
   14.2544    6.2142   19.4191 C   0  0  0  0  0  0  0  0  0  0  0  0
   13.0695    6.3705   20.0375 N   0  0  0  0  0  0  0  0  0  0  0  0
    9.1913    8.0876   21.8361 N   0  0  0  0  0  0  0  0  0  0  0  0
   10.4739    9.4813   20.2889 C   0  0  0  0  0  0  0  0  0  0  0  0
    7.5551    7.1270   23.1200 O   0  0  0  0  0  0  0  0  0  0  0  0
  1 11  4  0
  1 21  4  0
  2  4  1  0
  2  8  1  0
  2 11  1  0
  3 10  4  0
  3 14  4  0
  4  5  1  0
  4 18  2  0
  6 12  1  0
  6 17  4  0
  6 23  4  0
  7  9  1  0
  7 13  4  0
  7 19  4  0
  9 20  1  0
 10 19  4  0
 11 25  4  0
 13 14  4  0
 15 16  4  0
 15 17  4  0
 15 21  4  0
 16 24  1  0
 16 25  4  0
 20 24  1  0
 20 26  2  0
 21 23  4  0
 22 23  1  0
M  END
$$$$

 Created by Python create_sdf_string function

 26 28  0  0  0  0  0  0  0  0999 V2000
   12.4616    8.6700   19.4180 N   0  0  0  0  0  0  0  0  0  0  0  0
   11.8329   10.8148   18.6769 N   0  0  0  0  0  0  0  0  0  0  0  0
    6.1021    2.5564   21.0678 C   0  0  0  0  0  0  0  0  0  0  0  0
   10.9097   11.8051   18.4804 C   0  0  0  0  0  0  0  0  0  0  0  0
   11.2280   12.9135   17.5669 C   0  0  0  0  0  0  0  0  0  0  0  0
   12.3782    5.4231   20.7777 C   0  0  0  0  0  0  0  0  0  0  0  0
    7.7365    4.6508   21.6987 C   0  0  0  0  0  0  0  0  0  0  0  0
   13.0186   11.0102   18.0020 C   0  0  0  0  0  0  0  0  0  0  0  0
    8.6628    5.7088   21.8871 N   0  0  0  0  0  0  0  0  0  0  0  0
    5.6516    3.5258   21.9140 C   0  0  0  0  0  0  0  0  0  0  0  0
   11.5863    9.6815   19.4539 C   0  0  0  0  0  0  0  0  0  0  0  0
   12.9648    4.1543   20.9205 C   0  0  0  0  0  0  0  0  0  0  0  0
    8.2089    3.6265   20.8929 C   0  0  0  0  0  0  0  0  0  0  0  0
    7.3827    2.5724   20.5432 C   0  0  0  0  0  0  0  0  0  0  0  0
   11.1529    7.2750   20.8025 C   0  0  0  0  0  0  0  0  0  0  0  0
   10.2573    8.3215   20.9827 C   0  0  0  0  0  0  0  0  0  0  0  0
   11.1606    5.9378   21.2366 N   0  0  0  0  0  0  0  0  0  0  0  0
    9.8932   11.6736   19.0677 O   0  0  0  0  0  0  0  0  0  0  0  0
    6.4470    4.5850   22.2321 C   0  0  0  0  0  0  0  0  0  0  0  0
    8.4619    6.9895   22.2968 C   0  0  0  0  0  0  0  0  0  0  0  0
   12.2747    7.5102   20.0420 C   0  0  0  0  0  0  0  0  0  0  0  0
   14.2544    6.2142   19.4191 C   0  0  0  0  0  0  0  0  0  0  0  0
   13.0695    6.3705   20.0375 N   0  0  0  0  0  0  0  0  0  0  0  0
    9.1913    8.0876   21.8361 N   0  0  0  0  0  0  0  0  0  0  0  0
   10.4739    9.4813   20.2889 C   0  0  0  0  0  0  0  0  0  0  0  0
    7.5551    7.1270   23.1200 O   0  0  0  0  0  0  0  0  0  0  0  0
  1 11  4  0
  1 21  4  0
  2  4  1  0
  2  8  1  0
  2 11  1  0
  3 10  4  0
  3 14  4  0
  4  5  1  0
  4 18  2  0
  6 12  1  0
  6 17  4  0
  6 23  4  0
  7  9  1  0
  7 13  4  0
  7 19  4  0
  9 20  1  0
 10 19  4  0
 11 25  4  0
 13 14  4  0
 15 16  4  0
 15 17  4  0
 15 21  4  0
 16 24  1  0
 16 25  4  0
 20 24  1  0
 20 26  2  0
 21 23  4  0
 22 23  1  0
M  END
$$$$

 Created by Python create_sdf_string function

 26 28  0  0  0  0  0  0  0  0999 V2000
   12.4616    8.6700   19.4180 N   0  0  0  0  0  0  0  0  0  0  0  0
   11.8329   10.8148   18.6769 N   0  0  0  0  0  0  0  0  0  0  0  0
    6.1021    2.5564   21.0678 C   0  0  0  0  0  0  0  0  0  0  0  0
   10.9097   11.8051   18.4804 C   0  0  0  0  0  0  0  0  0  0  0  0
   11.2280   12.9135   17.5669 C   0  0  0  0  0  0  0  0  0  0  0  0
   12.3782    5.4231   20.7777 C   0  0  0  0  0  0  0  0  0  0  0  0
    7.7365    4.6508   21.6987 C   0  0  0  0  0  0  0  0  0  0  0  0
   13.0186   11.0102   18.0020 C   0  0  0  0  0  0  0  0  0  0  0  0
    8.6628    5.7088   21.8871 N   0  0  0  0  0  0  0  0  0  0  0  0
    5.6516    3.5258   21.9140 C   0  0  0  0  0  0  0  0  0  0  0  0
   11.5863    9.6815   19.4539 C   0  0  0  0  0  0  0  0  0  0  0  0
   12.9648    4.1543   20.9205 C   0  0  0  0  0  0  0  0  0  0  0  0
    8.2089    3.6265   20.8929 C   0  0  0  0  0  0  0  0  0  0  0  0
    7.3827    2.5724   20.5432 C   0  0  0  0  0  0  0  0  0  0  0  0
   11.1529    7.2750   20.8025 C   0  0  0  0  0  0  0  0  0  0  0  0
   10.2573    8.3215   20.9827 C   0  0  0  0  0  0  0  0  0  0  0  0
   11.1606    5.9378   21.2366 N   0  0  0  0  0  0  0  0  0  0  0  0
    9.8932   11.6736   19.0677 O   0  0  0  0  0  0  0  0  0  0  0  0
    6.4470    4.5850   22.2321 C   0  0  0  0  0  0  0  0  0  0  0  0
    8.4619    6.9895   22.2968 C   0  0  0  0  0  0  0  0  0  0  0  0
   12.2747    7.5102   20.0420 C   0  0  0  0  0  0  0  0  0  0  0  0
   14.2544    6.2142   19.4191 C   0  0  0  0  0  0  0  0  0  0  0  0
   13.0695    6.3705   20.0375 N   0  0  0  0  0  0  0  0  0  0  0  0
    9.1913    8.0876   21.8361 N   0  0  0  0  0  0  0  0  0  0  0  0
   10.4739    9.4813   20.2889 C   0  0  0  0  0  0  0  0  0  0  0  0
    7.5551    7.1270   23.1200 O   0  0  0  0  0  0  0  0  0  0  0  0
  1 11  4  0
  1 21  4  0
  2  4  1  0
  2  8  1  0
  2 11  1  0
  3 10  4  0
  3 14  4  0
  4  5  1  0
  4 18  2  0
  6 12  1  0
  6 17  4  0
  6 23  4  0
  7  9  1  0
  7 13  4  0
  7 19  4  0
  9 20  1  0
 10 19  4  0
 11 25  4  0
 13 14  4  0
 15 16  4  0
 15 17  4  0
 15 21  4  0
 16 24  1  0
 16 25  4  0
 20 24  1  0
 20 26  2  0
 21 23  4  0
 22 23  1  0
M  END
$$$$

 Created by Python create_sdf_string function

 26 28  0  0  0  0  0  0  0  0999 V2000
   12.4616    8.6700   19.4180 N   0  0  0  0  0  0  0  0  0  0  0  0
   11.8329   10.8148   18.6769 N   0  0  0  0  0  0  0  0  0  0  0  0
    6.1021    2.5564   21.0678 C   0  0  0  0  0  0  0  0  0  0  0  0
   10.9097   11.8051   18.4804 C   0  0  0  0  0  0  0  0  0  0  0  0
   11.2280   12.9135   17.5669 C   0  0  0  0  0  0  0  0  0  0  0  0
   12.3782    5.4231   20.7777 C   0  0  0  0  0  0  0  0  0  0  0  0
    7.7365    4.6508   21.6987 C   0  0  0  0  0  0  0  0  0  0  0  0
   13.0186   11.0102   18.0020 C   0  0  0  0  0  0  0  0  0  0  0  0
    8.6628    5.7088   21.8871 N   0  0  0  0  0  0  0  0  0  0  0  0
    5.6516    3.5258   21.9140 C   0  0  0  0  0  0  0  0  0  0  0  0
   11.5863    9.6815   19.4539 C   0  0  0  0  0  0  0  0  0  0  0  0
   12.9648    4.1543   20.9205 C   0  0  0  0  0  0  0  0  0  0  0  0
    8.2089    3.6265   20.8929 C   0  0  0  0  0  0  0  0  0  0  0  0
    7.3827    2.5724   20.5432 C   0  0  0  0  0  0  0  0  0  0  0  0
   11.1529    7.2750   20.8025 C   0  0  0  0  0  0  0  0  0  0  0  0
   10.2573    8.3215   20.9827 C   0  0  0  0  0  0  0  0  0  0  0  0
   11.1606    5.9378   21.2366 N   0  0  0  0  0  0  0  0  0  0  0  0
    9.8932   11.6736   19.0677 O   0  0  0  0  0  0  0  0  0  0  0  0
    6.4470    4.5850   22.2321 C   0  0  0  0  0  0  0  0  0  0  0  0
    8.4619    6.9895   22.2968 C   0  0  0  0  0  0  0  0  0  0  0  0
   12.2747    7.5102   20.0420 C   0  0  0  0  0  0  0  0  0  0  0  0
   14.2544    6.2142   19.4191 C   0  0  0  0  0  0  0  0  0  0  0  0
   13.0695    6.3705   20.0375 N   0  0  0  0  0  0  0  0  0  0  0  0
    9.1913    8.0876   21.8361 N   0  0  0  0  0  0  0  0  0  0  0  0
   10.4739    9.4813   20.2889 C   0  0  0  0  0  0  0  0  0  0  0  0
    7.5551    7.1270   23.1200 O   0  0  0  0  0  0  0  0  0  0  0  0
  1 11  4  0
  1 21  4  0
  2  4  1  0
  2  8  1  0
  2 11  1  0
  3 10  4  0
  3 14  4  0
  4  5  1  0
  4 18  2  0
  6 12  1  0
  6 17  4  0
  6 23  4  0
  7  9  1  0
  7 13  4  0
  7 19  4  0
  9 20  1  0
 10 19  4  0
 11 25  4  0
 13 14  4  0
 15 16  4  0
 15 17  4  0
 15 21  4  0
 16 24  1  0
 16 25  4  0
 20 24  1  0
 20 26  2  0
 21 23  4  0
 22 23  1  0
M  END
$$$$

 Created by Python create_sdf_string function

 26 28  0  0  0  0  0  0  0  0999 V2000
   12.4616    8.6700   19.4180 N   0  0  0  0  0  0  0  0  0  0  0  0
   11.8329   10.8148   18.6769 N   0  0  0  0  0  0  0  0  0  0  0  0
    6.1021    2.5564   21.0678 C   0  0  0  0  0  0  0  0  0  0  0  0
   10.9097   11.8051   18.4804 C   0  0  0  0  0  0  0  0  0  0  0  0
   11.2280   12.9135   17.5669 C   0  0  0  0  0  0  0  0  0  0  0  0
   12.3782    5.4231   20.7777 C   0  0  0  0  0  0  0  0  0  0  0  0
    7.7365    4.6508   21.6987 C   0  0  0  0  0  0  0  0  0  0  0  0
   13.0186   11.0102   18.0020 C   0  0  0  0  0  0  0  0  0  0  0  0
    8.6628    5.7088   21.8871 N   0  0  0  0  0  0  0  0  0  0  0  0
    5.6516    3.5258   21.9140 C   0  0  0  0  0  0  0  0  0  0  0  0
   11.5863    9.6815   19.4539 C   0  0  0  0  0  0  0  0  0  0  0  0
   12.9648    4.1543   20.9205 C   0  0  0  0  0  0  0  0  0  0  0  0
    8.2089    3.6265   20.8929 C   0  0  0  0  0  0  0  0  0  0  0  0
    7.3827    2.5724   20.5432 C   0  0  0  0  0  0  0  0  0  0  0  0
   11.1529    7.2750   20.8025 C   0  0  0  0  0  0  0  0  0  0  0  0
   10.2573    8.3215   20.9827 C   0  0  0  0  0  0  0  0  0  0  0  0
   11.1606    5.9378   21.2366 N   0  0  0  0  0  0  0  0  0  0  0  0
    9.8932   11.6736   19.0677 O   0  0  0  0  0  0  0  0  0  0  0  0
    6.4470    4.5850   22.2321 C   0  0  0  0  0  0  0  0  0  0  0  0
    8.4619    6.9895   22.2968 C   0  0  0  0  0  0  0  0  0  0  0  0
   12.2747    7.5102   20.0420 C   0  0  0  0  0  0  0  0  0  0  0  0
   14.2544    6.2142   19.4191 C   0  0  0  0  0  0  0  0  0  0  0  0
   13.0695    6.3705   20.0375 N   0  0  0  0  0  0  0  0  0  0  0  0
    9.1913    8.0876   21.8361 N   0  0  0  0  0  0  0  0  0  0  0  0
   10.4739    9.4813   20.2889 C   0  0  0  0  0  0  0  0  0  0  0  0
    7.5551    7.1270   23.1200 O   0  0  0  0  0  0  0  0  0  0  0  0
  1 11  4  0
  1 21  4  0
  2  4  1  0
  2  8  1  0
  2 11  1  0
  3 10  4  0
  3 14  4  0
  4  5  1  0
  4 18  2  0
  6 12  1  0
  6 17  4  0
  6 23  4  0
  7  9  1  0
  7 13  4  0
  7 19  4  0
  9 20  1  0
 10 19  4  0
 11 25  4  0
 13 14  4  0
 15 16  4  0
 15 17  4  0
 15 21  4  0
 16 24  1  0
 16 25  4  0
 20 24  1  0
 20 26  2  0
 21 23  4  0
 22 23  1  0
M  END
$$$$

 Created by Python create_sdf_string function

 26 28  0  0  0  0  0  0  0  0999 V2000
   12.4616    8.6700   19.4180 N   0  0  0  0  0  0  0  0  0  0  0  0
   11.8329   10.8148   18.6769 N   0  0  0  0  0  0  0  0  0  0  0  0
    6.1021    2.5564   21.0678 C   0  0  0  0  0  0  0  0  0  0  0  0
   10.9097   11.8051   18.4804 C   0  0  0  0  0  0  0  0  0  0  0  0
   11.2280   12.9135   17.5669 C   0  0  0  0  0  0  0  0  0  0  0  0
   12.3782    5.4231   20.7777 C   0  0  0  0  0  0  0  0  0  0  0  0
    7.7365    4.6508   21.6987 C   0  0  0  0  0  0  0  0  0  0  0  0
   13.0186   11.0102   18.0020 C   0  0  0  0  0  0  0  0  0  0  0  0
    8.6628    5.7088   21.8871 N   0  0  0  0  0  0  0  0  0  0  0  0
    5.6516    3.5258   21.9140 C   0  0  0  0  0  0  0  0  0  0  0  0
   11.5863    9.6815   19.4539 C   0  0  0  0  0  0  0  0  0  0  0  0
   12.9648    4.1543   20.9205 C   0  0  0  0  0  0  0  0  0  0  0  0
    8.2089    3.6265   20.8929 C   0  0  0  0  0  0  0  0  0  0  0  0
    7.3827    2.5724   20.5432 C   0  0  0  0  0  0  0  0  0  0  0  0
   11.1529    7.2750   20.8025 C   0  0  0  0  0  0  0  0  0  0  0  0
   10.2573    8.3215   20.9827 C   0  0  0  0  0  0  0  0  0  0  0  0
   11.1606    5.9378   21.2366 N   0  0  0  0  0  0  0  0  0  0  0  0
    9.8932   11.6736   19.0677 O   0  0  0  0  0  0  0  0  0  0  0  0
    6.4470    4.5850   22.2321 C   0  0  0  0  0  0  0  0  0  0  0  0
    8.4619    6.9895   22.2968 C   0  0  0  0  0  0  0  0  0  0  0  0
   12.2747    7.5102   20.0420 C   0  0  0  0  0  0  0  0  0  0  0  0
   14.2544    6.2142   19.4191 C   0  0  0  0  0  0  0  0  0  0  0  0
   13.0695    6.3705   20.0375 N   0  0  0  0  0  0  0  0  0  0  0  0
    9.1913    8.0876   21.8361 N   0  0  0  0  0  0  0  0  0  0  0  0
   10.4739    9.4813   20.2889 C   0  0  0  0  0  0  0  0  0  0  0  0
    7.5551    7.1270   23.1200 O   0  0  0  0  0  0  0  0  0  0  0  0
  1 11  4  0
  1 21  4  0
  2  4  1  0
  2  8  1  0
  2 11  1  0
  3 10  4  0
  3 14  4  0
  4  5  1  0
  4 18  2  0
  6 12  1  0
  6 17  4  0
  6 23  4  0
  7  9  1  0
  7 13  4  0
  7 19  4  0
  9 20  1  0
 10 19  4  0
 11 25  4  0
 13 14  4  0
 15 16  4  0
 15 17  4  0
 15 21  4  0
 16 24  1  0
 16 25  4  0
 20 24  1  0
 20 26  2  0
 21 23  4  0
 22 23  1  0
M  END
$$$$

 Created by Python create_sdf_string function

 26 28  0  0  0  0  0  0  0  0999 V2000
   12.4616    8.6700   19.4180 N   0  0  0  0  0  0  0  0  0  0  0  0
   11.8329   10.8148   18.6769 N   0  0  0  0  0  0  0  0  0  0  0  0
    6.1021    2.5564   21.0678 C   0  0  0  0  0  0  0  0  0  0  0  0
   10.9097   11.8051   18.4804 C   0  0  0  0  0  0  0  0  0  0  0  0
   11.2280   12.9135   17.5669 C   0  0  0  0  0  0  0  0  0  0  0  0
   12.3782    5.4231   20.7777 C   0  0  0  0  0  0  0  0  0  0  0  0
    7.7365    4.6508   21.6987 C   0  0  0  0  0  0  0  0  0  0  0  0
   13.0186   11.0102   18.0020 C   0  0  0  0  0  0  0  0  0  0  0  0
    8.6628    5.7088   21.8871 N   0  0  0  0  0  0  0  0  0  0  0  0
    5.6516    3.5258   21.9140 C   0  0  0  0  0  0  0  0  0  0  0  0
   11.5863    9.6815   19.4539 C   0  0  0  0  0  0  0  0  0  0  0  0
   12.9648    4.1543   20.9205 C   0  0  0  0  0  0  0  0  0  0  0  0
    8.2089    3.6265   20.8929 C   0  0  0  0  0  0  0  0  0  0  0  0
    7.3827    2.5724   20.5432 C   0  0  0  0  0  0  0  0  0  0  0  0
   11.1529    7.2750   20.8025 C   0  0  0  0  0  0  0  0  0  0  0  0
   10.2573    8.3215   20.9827 C   0  0  0  0  0  0  0  0  0  0  0  0
   11.1606    5.9378   21.2366 N   0  0  0  0  0  0  0  0  0  0  0  0
    9.8932   11.6736   19.0677 O   0  0  0  0  0  0  0  0  0  0  0  0
    6.4470    4.5850   22.2321 C   0  0  0  0  0  0  0  0  0  0  0  0
    8.4619    6.9895   22.2968 C   0  0  0  0  0  0  0  0  0  0  0  0
   12.2747    7.5102   20.0420 C   0  0  0  0  0  0  0  0  0  0  0  0
   14.2544    6.2142   19.4191 C   0  0  0  0  0  0  0  0  0  0  0  0
   13.0695    6.3705   20.0375 N   0  0  0  0  0  0  0  0  0  0  0  0
    9.1913    8.0876   21.8361 N   0  0  0  0  0  0  0  0  0  0  0  0
   10.4739    9.4813   20.2889 C   0  0  0  0  0  0  0  0  0  0  0  0
    7.5551    7.1270   23.1200 O   0  0  0  0  0  0  0  0  0  0  0  0
  1 11  4  0
  1 21  4  0
  2  4  1  0
  2  8  1  0
  2 11  1  0
  3 10  4  0
  3 14  4  0
  4  5  1  0
  4 18  2  0
  6 12  1  0
  6 17  4  0
  6 23  4  0
  7  9  1  0
  7 13  4  0
  7 19  4  0
  9 20  1  0
 10 19  4  0
 11 25  4  0
 13 14  4  0
 15 16  4  0
 15 17  4  0
 15 21  4  0
 16 24  1  0
 16 25  4  0
 20 24  1  0
 20 26  2  0
 21 23  4  0
 22 23  1  0
M  END
$$$$

 Created by Python create_sdf_string function

 26 28  0  0  0  0  0  0  0  0999 V2000
   12.4616    8.6700   19.4180 N   0  0  0  0  0  0  0  0  0  0  0  0
   11.8329   10.8148   18.6769 N   0  0  0  0  0  0  0  0  0  0  0  0
    6.1021    2.5564   21.0678 C   0  0  0  0  0  0  0  0  0  0  0  0
   10.9097   11.8051   18.4804 C   0  0  0  0  0  0  0  0  0  0  0  0
   11.2280   12.9135   17.5669 C   0  0  0  0  0  0  0  0  0  0  0  0
   12.3782    5.4231   20.7777 C   0  0  0  0  0  0  0  0  0  0  0  0
    7.7365    4.6508   21.6987 C   0  0  0  0  0  0  0  0  0  0  0  0
   13.0186   11.0102   18.0020 C   0  0  0  0  0  0  0  0  0  0  0  0
    8.6628    5.7088   21.8871 N   0  0  0  0  0  0  0  0  0  0  0  0
    5.6516    3.5258   21.9140 C   0  0  0  0  0  0  0  0  0  0  0  0
   11.5863    9.6815   19.4539 C   0  0  0  0  0  0  0  0  0  0  0  0
   12.9648    4.1543   20.9205 C   0  0  0  0  0  0  0  0  0  0  0  0
    8.2089    3.6265   20.8929 C   0  0  0  0  0  0  0  0  0  0  0  0
    7.3827    2.5724   20.5432 C   0  0  0  0  0  0  0  0  0  0  0  0
   11.1529    7.2750   20.8025 C   0  0  0  0  0  0  0  0  0  0  0  0
   10.2573    8.3215   20.9827 C   0  0  0  0  0  0  0  0  0  0  0  0
   11.1606    5.9378   21.2366 N   0  0  0  0  0  0  0  0  0  0  0  0
    9.8932   11.6736   19.0677 O   0  0  0  0  0  0  0  0  0  0  0  0
    6.4470    4.5850   22.2321 C   0  0  0  0  0  0  0  0  0  0  0  0
    8.4619    6.9895   22.2968 C   0  0  0  0  0  0  0  0  0  0  0  0
   12.2747    7.5102   20.0420 C   0  0  0  0  0  0  0  0  0  0  0  0
   14.2544    6.2142   19.4191 C   0  0  0  0  0  0  0  0  0  0  0  0
   13.0695    6.3705   20.0375 N   0  0  0  0  0  0  0  0  0  0  0  0
    9.1913    8.0876   21.8361 N   0  0  0  0  0  0  0  0  0  0  0  0
   10.4739    9.4813   20.2889 C   0  0  0  0  0  0  0  0  0  0  0  0
    7.5551    7.1270   23.1200 O   0  0  0  0  0  0  0  0  0  0  0  0
  1 11  4  0
  1 21  4  0
  2  4  1  0
  2  8  1  0
  2 11  1  0
  3 10  4  0
  3 14  4  0
  4  5  1  0
  4 18  2  0
  6 12  1  0
  6 17  4  0
  6 23  4  0
  7  9  1  0
  7 13  4  0
  7 19  4  0
  9 20  1  0
 10 19  4  0
 11 25  4  0
 13 14  4  0
 15 16  4  0
 15 17  4  0
 15 21  4  0
 16 24  1  0
 16 25  4  0
 20 24  1  0
 20 26  2  0
 21 23  4  0
 22 23  1  0
M  END
$$$$

 Created by Python create_sdf_string function

 26 28  0  0  0  0  0  0  0  0999 V2000
   12.4616    8.6700   19.4180 N   0  0  0  0  0  0  0  0  0  0  0  0
   11.8329   10.8148   18.6769 N   0  0  0  0  0  0  0  0  0  0  0  0
    6.1021    2.5564   21.0678 C   0  0  0  0  0  0  0  0  0  0  0  0
   10.9097   11.8051   18.4804 C   0  0  0  0  0  0  0  0  0  0  0  0
   11.2280   12.9135   17.5669 C   0  0  0  0  0  0  0  0  0  0  0  0
   12.3782    5.4231   20.7777 C   0  0  0  0  0  0  0  0  0  0  0  0
    7.7365    4.6508   21.6987 C   0  0  0  0  0  0  0  0  0  0  0  0
   13.0186   11.0102   18.0020 C   0  0  0  0  0  0  0  0  0  0  0  0
    8.6628    5.7088   21.8871 N   0  0  0  0  0  0  0  0  0  0  0  0
    5.6516    3.5258   21.9140 C   0  0  0  0  0  0  0  0  0  0  0  0
   11.5863    9.6815   19.4539 C   0  0  0  0  0  0  0  0  0  0  0  0
   12.9648    4.1543   20.9205 C   0  0  0  0  0  0  0  0  0  0  0  0
    8.2089    3.6265   20.8929 C   0  0  0  0  0  0  0  0  0  0  0  0
    7.3827    2.5724   20.5432 C   0  0  0  0  0  0  0  0  0  0  0  0
   11.1529    7.2750   20.8025 C   0  0  0  0  0  0  0  0  0  0  0  0
   10.2573    8.3215   20.9827 C   0  0  0  0  0  0  0  0  0  0  0  0
   11.1606    5.9378   21.2366 N   0  0  0  0  0  0  0  0  0  0  0  0
    9.8932   11.6736   19.0677 O   0  0  0  0  0  0  0  0  0  0  0  0
    6.4470    4.5850   22.2321 C   0  0  0  0  0  0  0  0  0  0  0  0
    8.4619    6.9895   22.2968 C   0  0  0  0  0  0  0  0  0  0  0  0
   12.2747    7.5102   20.0420 C   0  0  0  0  0  0  0  0  0  0  0  0
   14.2544    6.2142   19.4191 C   0  0  0  0  0  0  0  0  0  0  0  0
   13.0695    6.3705   20.0375 N   0  0  0  0  0  0  0  0  0  0  0  0
    9.1913    8.0876   21.8361 N   0  0  0  0  0  0  0  0  0  0  0  0
   10.4739    9.4813   20.2889 C   0  0  0  0  0  0  0  0  0  0  0  0
    7.5551    7.1270   23.1200 O   0  0  0  0  0  0  0  0  0  0  0  0
  1 11  4  0
  1 21  4  0
  2  4  1  0
  2  8  1  0
  2 11  1  0
  3 10  4  0
  3 14  4  0
  4  5  1  0
  4 18  2  0
  6 12  1  0
  6 17  4  0
  6 23  4  0
  7  9  1  0
  7 13  4  0
  7 19  4  0
  9 20  1  0
 10 19  4  0
 11 25  4  0
 13 14  4  0
 15 16  4  0
 15 17  4  0
 15 21  4  0
 16 24  1  0
 16 25  4  0
 20 24  1  0
 20 26  2  0
 21 23  4  0
 22 23  1  0
M  END
$$$$

 Created by Python create_sdf_string function

 26 28  0  0  0  0  0  0  0  0999 V2000
   12.4616    8.6700   19.4180 N   0  0  0  0  0  0  0  0  0  0  0  0
   11.8329   10.8148   18.6769 N   0  0  0  0  0  0  0  0  0  0  0  0
    6.1021    2.5564   21.0678 C   0  0  0  0  0  0  0  0  0  0  0  0
   10.9097   11.8051   18.4804 C   0  0  0  0  0  0  0  0  0  0  0  0
   11.2280   12.9135   17.5669 C   0  0  0  0  0  0  0  0  0  0  0  0
   12.3782    5.4231   20.7777 C   0  0  0  0  0  0  0  0  0  0  0  0
    7.7365    4.6508   21.6987 C   0  0  0  0  0  0  0  0  0  0  0  0
   13.0186   11.0102   18.0020 C   0  0  0  0  0  0  0  0  0  0  0  0
    8.6628    5.7088   21.8871 N   0  0  0  0  0  0  0  0  0  0  0  0
    5.6516    3.5258   21.9140 C   0  0  0  0  0  0  0  0  0  0  0  0
   11.5863    9.6815   19.4539 C   0  0  0  0  0  0  0  0  0  0  0  0
   12.9648    4.1543   20.9205 C   0  0  0  0  0  0  0  0  0  0  0  0
    8.2089    3.6265   20.8929 C   0  0  0  0  0  0  0  0  0  0  0  0
    7.3827    2.5724   20.5432 C   0  0  0  0  0  0  0  0  0  0  0  0
   11.1529    7.2750   20.8025 C   0  0  0  0  0  0  0  0  0  0  0  0
   10.2573    8.3215   20.9827 C   0  0  0  0  0  0  0  0  0  0  0  0
   11.1606    5.9378   21.2366 N   0  0  0  0  0  0  0  0  0  0  0  0
    9.8932   11.6736   19.0677 O   0  0  0  0  0  0  0  0  0  0  0  0
    6.4470    4.5850   22.2321 C   0  0  0  0  0  0  0  0  0  0  0  0
    8.4619    6.9895   22.2968 C   0  0  0  0  0  0  0  0  0  0  0  0
   12.2747    7.5102   20.0420 C   0  0  0  0  0  0  0  0  0  0  0  0
   14.2544    6.2142   19.4191 C   0  0  0  0  0  0  0  0  0  0  0  0
   13.0695    6.3705   20.0375 N   0  0  0  0  0  0  0  0  0  0  0  0
    9.1913    8.0876   21.8361 N   0  0  0  0  0  0  0  0  0  0  0  0
   10.4739    9.4813   20.2889 C   0  0  0  0  0  0  0  0  0  0  0  0
    7.5551    7.1270   23.1200 O   0  0  0  0  0  0  0  0  0  0  0  0
  1 11  4  0
  1 21  4  0
  2  4  1  0
  2  8  1  0
  2 11  1  0
  3 10  4  0
  3 14  4  0
  4  5  1  0
  4 18  2  0
  6 12  1  0
  6 17  4  0
  6 23  4  0
  7  9  1  0
  7 13  4  0
  7 19  4  0
  9 20  1  0
 10 19  4  0
 11 25  4  0
 13 14  4  0
 15 16  4  0
 15 17  4  0
 15 21  4  0
 16 24  1  0
 16 25  4  0
 20 24  1  0
 20 26  2  0
 21 23  4  0
 22 23  1  0
M  END
$$$$

 Created by Python create_sdf_string function

 26 28  0  0  0  0  0  0  0  0999 V2000
   12.4616    8.6700   19.4180 N   0  0  0  0  0  0  0  0  0  0  0  0
   11.8329   10.8148   18.6769 N   0  0  0  0  0  0  0  0  0  0  0  0
    6.1021    2.5564   21.0678 C   0  0  0  0  0  0  0  0  0  0  0  0
   10.9097   11.8051   18.4804 C   0  0  0  0  0  0  0  0  0  0  0  0
   11.2280   12.9135   17.5669 C   0  0  0  0  0  0  0  0  0  0  0  0
   12.3782    5.4231   20.7777 C   0  0  0  0  0  0  0  0  0  0  0  0
    7.7365    4.6508   21.6987 C   0  0  0  0  0  0  0  0  0  0  0  0
   13.0186   11.0102   18.0020 C   0  0  0  0  0  0  0  0  0  0  0  0
    8.6628    5.7088   21.8871 N   0  0  0  0  0  0  0  0  0  0  0  0
    5.6516    3.5258   21.9140 C   0  0  0  0  0  0  0  0  0  0  0  0
   11.5863    9.6815   19.4539 C   0  0  0  0  0  0  0  0  0  0  0  0
   12.9648    4.1543   20.9205 C   0  0  0  0  0  0  0  0  0  0  0  0
    8.2089    3.6265   20.8929 C   0  0  0  0  0  0  0  0  0  0  0  0
    7.3827    2.5724   20.5432 C   0  0  0  0  0  0  0  0  0  0  0  0
   11.1529    7.2750   20.8025 C   0  0  0  0  0  0  0  0  0  0  0  0
   10.2573    8.3215   20.9827 C   0  0  0  0  0  0  0  0  0  0  0  0
   11.1606    5.9378   21.2366 N   0  0  0  0  0  0  0  0  0  0  0  0
    9.8932   11.6736   19.0677 O   0  0  0  0  0  0  0  0  0  0  0  0
    6.4470    4.5850   22.2321 C   0  0  0  0  0  0  0  0  0  0  0  0
    8.4619    6.9895   22.2968 C   0  0  0  0  0  0  0  0  0  0  0  0
   12.2747    7.5102   20.0420 C   0  0  0  0  0  0  0  0  0  0  0  0
   14.2544    6.2142   19.4191 C   0  0  0  0  0  0  0  0  0  0  0  0
   13.0695    6.3705   20.0375 N   0  0  0  0  0  0  0  0  0  0  0  0
    9.1913    8.0876   21.8361 N   0  0  0  0  0  0  0  0  0  0  0  0
   10.4739    9.4813   20.2889 C   0  0  0  0  0  0  0  0  0  0  0  0
    7.5551    7.1270   23.1200 O   0  0  0  0  0  0  0  0  0  0  0  0
  1 11  4  0
  1 21  4  0
  2  4  1  0
  2  8  1  0
  2 11  1  0
  3 10  4  0
  3 14  4  0
  4  5  1  0
  4 18  2  0
  6 12  1  0
  6 17  4  0
  6 23  4  0
  7  9  1  0
  7 13  4  0
  7 19  4  0
  9 20  1  0
 10 19  4  0
 11 25  4  0
 13 14  4  0
 15 16  4  0
 15 17  4  0
 15 21  4  0
 16 24  1  0
 16 25  4  0
 20 24  1  0
 20 26  2  0
 21 23  4  0
 22 23  1  0
M  END
$$$$

 Created by Python create_sdf_string function

 26 28  0  0  0  0  0  0  0  0999 V2000
   12.4616    8.6700   19.4180 N   0  0  0  0  0  0  0  0  0  0  0  0
   11.8329   10.8148   18.6769 N   0  0  0  0  0  0  0  0  0  0  0  0
    6.1021    2.5564   21.0678 C   0  0  0  0  0  0  0  0  0  0  0  0
   10.9097   11.8051   18.4804 C   0  0  0  0  0  0  0  0  0  0  0  0
   11.2280   12.9135   17.5669 C   0  0  0  0  0  0  0  0  0  0  0  0
   12.3782    5.4231   20.7777 C   0  0  0  0  0  0  0  0  0  0  0  0
    7.7365    4.6508   21.6987 C   0  0  0  0  0  0  0  0  0  0  0  0
   13.0186   11.0102   18.0020 C   0  0  0  0  0  0  0  0  0  0  0  0
    8.6628    5.7088   21.8871 N   0  0  0  0  0  0  0  0  0  0  0  0
    5.6516    3.5258   21.9140 C   0  0  0  0  0  0  0  0  0  0  0  0
   11.5863    9.6815   19.4539 C   0  0  0  0  0  0  0  0  0  0  0  0
   12.9648    4.1543   20.9205 C   0  0  0  0  0  0  0  0  0  0  0  0
    8.2089    3.6265   20.8929 C   0  0  0  0  0  0  0  0  0  0  0  0
    7.3827    2.5724   20.5432 C   0  0  0  0  0  0  0  0  0  0  0  0
   11.1529    7.2750   20.8025 C   0  0  0  0  0  0  0  0  0  0  0  0
   10.2573    8.3215   20.9827 C   0  0  0  0  0  0  0  0  0  0  0  0
   11.1606    5.9378   21.2366 N   0  0  0  0  0  0  0  0  0  0  0  0
    9.8932   11.6736   19.0677 O   0  0  0  0  0  0  0  0  0  0  0  0
    6.4470    4.5850   22.2321 C   0  0  0  0  0  0  0  0  0  0  0  0
    8.4619    6.9895   22.2968 C   0  0  0  0  0  0  0  0  0  0  0  0
   12.2747    7.5102   20.0420 C   0  0  0  0  0  0  0  0  0  0  0  0
   14.2544    6.2142   19.4191 C   0  0  0  0  0  0  0  0  0  0  0  0
   13.0695    6.3705   20.0375 N   0  0  0  0  0  0  0  0  0  0  0  0
    9.1913    8.0876   21.8361 N   0  0  0  0  0  0  0  0  0  0  0  0
   10.4739    9.4813   20.2889 C   0  0  0  0  0  0  0  0  0  0  0  0
    7.5551    7.1270   23.1200 O   0  0  0  0  0  0  0  0  0  0  0  0
  1 11  4  0
  1 21  4  0
  2  4  1  0
  2  8  1  0
  2 11  1  0
  3 10  4  0
  3 14  4  0
  4  5  1  0
  4 18  2  0
  6 12  1  0
  6 17  4  0
  6 23  4  0
  7  9  1  0
  7 13  4  0
  7 19  4  0
  9 20  1  0
 10 19  4  0
 11 25  4  0
 13 14  4  0
 15 16  4  0
 15 17  4  0
 15 21  4  0
 16 24  1  0
 16 25  4  0
 20 24  1  0
 20 26  2  0
 21 23  4  0
 22 23  1  0
M  END
$$$$

 Created by Python create_sdf_string function

 26 28  0  0  0  0  0  0  0  0999 V2000
   12.4616    8.6700   19.4180 N   0  0  0  0  0  0  0  0  0  0  0  0
   11.8329   10.8148   18.6769 N   0  0  0  0  0  0  0  0  0  0  0  0
    6.1021    2.5564   21.0678 C   0  0  0  0  0  0  0  0  0  0  0  0
   10.9097   11.8051   18.4804 C   0  0  0  0  0  0  0  0  0  0  0  0
   11.2280   12.9135   17.5669 C   0  0  0  0  0  0  0  0  0  0  0  0
   12.3782    5.4231   20.7777 C   0  0  0  0  0  0  0  0  0  0  0  0
    7.7365    4.6508   21.6987 C   0  0  0  0  0  0  0  0  0  0  0  0
   13.0186   11.0102   18.0020 C   0  0  0  0  0  0  0  0  0  0  0  0
    8.6628    5.7088   21.8871 N   0  0  0  0  0  0  0  0  0  0  0  0
    5.6516    3.5258   21.9140 C   0  0  0  0  0  0  0  0  0  0  0  0
   11.5863    9.6815   19.4539 C   0  0  0  0  0  0  0  0  0  0  0  0
   12.9648    4.1543   20.9205 C   0  0  0  0  0  0  0  0  0  0  0  0
    8.2089    3.6265   20.8929 C   0  0  0  0  0  0  0  0  0  0  0  0
    7.3827    2.5724   20.5432 C   0  0  0  0  0  0  0  0  0  0  0  0
   11.1529    7.2750   20.8025 C   0  0  0  0  0  0  0  0  0  0  0  0
   10.2573    8.3215   20.9827 C   0  0  0  0  0  0  0  0  0  0  0  0
   11.1606    5.9378   21.2366 N   0  0  0  0  0  0  0  0  0  0  0  0
    9.8932   11.6736   19.0677 O   0  0  0  0  0  0  0  0  0  0  0  0
    6.4470    4.5850   22.2321 C   0  0  0  0  0  0  0  0  0  0  0  0
    8.4619    6.9895   22.2968 C   0  0  0  0  0  0  0  0  0  0  0  0
   12.2747    7.5102   20.0420 C   0  0  0  0  0  0  0  0  0  0  0  0
   14.2544    6.2142   19.4191 C   0  0  0  0  0  0  0  0  0  0  0  0
   13.0695    6.3705   20.0375 N   0  0  0  0  0  0  0  0  0  0  0  0
    9.1913    8.0876   21.8361 N   0  0  0  0  0  0  0  0  0  0  0  0
   10.4739    9.4813   20.2889 C   0  0  0  0  0  0  0  0  0  0  0  0
    7.5551    7.1270   23.1200 O   0  0  0  0  0  0  0  0  0  0  0  0
  1 11  4  0
  1 21  4  0
  2  4  1  0
  2  8  1  0
  2 11  1  0
  3 10  4  0
  3 14  4  0
  4  5  1  0
  4 18  2  0
  6 12  1  0
  6 17  4  0
  6 23  4  0
  7  9  1  0
  7 13  4  0
  7 19  4  0
  9 20  1  0
 10 19  4  0
 11 25  4  0
 13 14  4  0
 15 16  4  0
 15 17  4  0
 15 21  4  0
 16 24  1  0
 16 25  4  0
 20 24  1  0
 20 26  2  0
 21 23  4  0
 22 23  1  0
M  END
$$$$

 Created by Python create_sdf_string function

 26 28  0  0  0  0  0  0  0  0999 V2000
   12.4616    8.6700   19.4180 N   0  0  0  0  0  0  0  0  0  0  0  0
   11.8329   10.8148   18.6769 N   0  0  0  0  0  0  0  0  0  0  0  0
    6.1021    2.5564   21.0678 C   0  0  0  0  0  0  0  0  0  0  0  0
   10.9097   11.8051   18.4804 C   0  0  0  0  0  0  0  0  0  0  0  0
   11.2280   12.9135   17.5669 C   0  0  0  0  0  0  0  0  0  0  0  0
   12.3782    5.4231   20.7777 C   0  0  0  0  0  0  0  0  0  0  0  0
    7.7365    4.6508   21.6987 C   0  0  0  0  0  0  0  0  0  0  0  0
   13.0186   11.0102   18.0020 C   0  0  0  0  0  0  0  0  0  0  0  0
    8.6628    5.7088   21.8871 N   0  0  0  0  0  0  0  0  0  0  0  0
    5.6516    3.5258   21.9140 C   0  0  0  0  0  0  0  0  0  0  0  0
   11.5863    9.6815   19.4539 C   0  0  0  0  0  0  0  0  0  0  0  0
   12.9648    4.1543   20.9205 C   0  0  0  0  0  0  0  0  0  0  0  0
    8.2089    3.6265   20.8929 C   0  0  0  0  0  0  0  0  0  0  0  0
    7.3827    2.5724   20.5432 C   0  0  0  0  0  0  0  0  0  0  0  0
   11.1529    7.2750   20.8025 C   0  0  0  0  0  0  0  0  0  0  0  0
   10.2573    8.3215   20.9827 C   0  0  0  0  0  0  0  0  0  0  0  0
   11.1606    5.9378   21.2366 N   0  0  0  0  0  0  0  0  0  0  0  0
    9.8932   11.6736   19.0677 O   0  0  0  0  0  0  0  0  0  0  0  0
    6.4470    4.5850   22.2321 C   0  0  0  0  0  0  0  0  0  0  0  0
    8.4619    6.9895   22.2968 C   0  0  0  0  0  0  0  0  0  0  0  0
   12.2747    7.5102   20.0420 C   0  0  0  0  0  0  0  0  0  0  0  0
   14.2544    6.2142   19.4191 C   0  0  0  0  0  0  0  0  0  0  0  0
   13.0695    6.3705   20.0375 N   0  0  0  0  0  0  0  0  0  0  0  0
    9.1913    8.0876   21.8361 N   0  0  0  0  0  0  0  0  0  0  0  0
   10.4739    9.4813   20.2889 C   0  0  0  0  0  0  0  0  0  0  0  0
    7.5551    7.1270   23.1200 O   0  0  0  0  0  0  0  0  0  0  0  0
  1 11  4  0
  1 21  4  0
  2  4  1  0
  2  8  1  0
  2 11  1  0
  3 10  4  0
  3 14  4  0
  4  5  1  0
  4 18  2  0
  6 12  1  0
  6 17  4  0
  6 23  4  0
  7  9  1  0
  7 13  4  0
  7 19  4  0
  9 20  1  0
 10 19  4  0
 11 25  4  0
 13 14  4  0
 15 16  4  0
 15 17  4  0
 15 21  4  0
 16 24  1  0
 16 25  4  0
 20 24  1  0
 20 26  2  0
 21 23  4  0
 22 23  1  0
M  END
$$$$

 Created by Python create_sdf_string function

 26 28  0  0  0  0  0  0  0  0999 V2000
   12.4616    8.6700   19.4180 N   0  0  0  0  0  0  0  0  0  0  0  0
   11.8329   10.8148   18.6769 N   0  0  0  0  0  0  0  0  0  0  0  0
    6.1021    2.5564   21.0678 C   0  0  0  0  0  0  0  0  0  0  0  0
   10.9097   11.8051   18.4804 C   0  0  0  0  0  0  0  0  0  0  0  0
   11.2280   12.9135   17.5669 C   0  0  0  0  0  0  0  0  0  0  0  0
   12.3782    5.4231   20.7777 C   0  0  0  0  0  0  0  0  0  0  0  0
    7.7365    4.6508   21.6987 C   0  0  0  0  0  0  0  0  0  0  0  0
   13.0186   11.0102   18.0020 C   0  0  0  0  0  0  0  0  0  0  0  0
    8.6628    5.7088   21.8871 N   0  0  0  0  0  0  0  0  0  0  0  0
    5.6516    3.5258   21.9140 C   0  0  0  0  0  0  0  0  0  0  0  0
   11.5863    9.6815   19.4539 C   0  0  0  0  0  0  0  0  0  0  0  0
   12.9648    4.1543   20.9205 C   0  0  0  0  0  0  0  0  0  0  0  0
    8.2089    3.6265   20.8929 C   0  0  0  0  0  0  0  0  0  0  0  0
    7.3827    2.5724   20.5432 C   0  0  0  0  0  0  0  0  0  0  0  0
   11.1529    7.2750   20.8025 C   0  0  0  0  0  0  0  0  0  0  0  0
   10.2573    8.3215   20.9827 C   0  0  0  0  0  0  0  0  0  0  0  0
   11.1606    5.9378   21.2366 N   0  0  0  0  0  0  0  0  0  0  0  0
    9.8932   11.6736   19.0677 O   0  0  0  0  0  0  0  0  0  0  0  0
    6.4470    4.5850   22.2321 C   0  0  0  0  0  0  0  0  0  0  0  0
    8.4619    6.9895   22.2968 C   0  0  0  0  0  0  0  0  0  0  0  0
   12.2747    7.5102   20.0420 C   0  0  0  0  0  0  0  0  0  0  0  0
   14.2544    6.2142   19.4191 C   0  0  0  0  0  0  0  0  0  0  0  0
   13.0695    6.3705   20.0375 N   0  0  0  0  0  0  0  0  0  0  0  0
    9.1913    8.0876   21.8361 N   0  0  0  0  0  0  0  0  0  0  0  0
   10.4739    9.4813   20.2889 C   0  0  0  0  0  0  0  0  0  0  0  0
    7.5551    7.1270   23.1200 O   0  0  0  0  0  0  0  0  0  0  0  0
  1 11  4  0
  1 21  4  0
  2  4  1  0
  2  8  1  0
  2 11  1  0
  3 10  4  0
  3 14  4  0
  4  5  1  0
  4 18  2  0
  6 12  1  0
  6 17  4  0
  6 23  4  0
  7  9  1  0
  7 13  4  0
  7 19  4  0
  9 20  1  0
 10 19  4  0
 11 25  4  0
 13 14  4  0
 15 16  4  0
 15 17  4  0
 15 21  4  0
 16 24  1  0
 16 25  4  0
 20 24  1  0
 20 26  2  0
 21 23  4  0
 22 23  1  0
M  END
$$$$

 Created by Python create_sdf_string function

 26 28  0  0  0  0  0  0  0  0999 V2000
   12.4616    8.6700   19.4180 N   0  0  0  0  0  0  0  0  0  0  0  0
   11.8329   10.8148   18.6769 N   0  0  0  0  0  0  0  0  0  0  0  0
    6.1021    2.5564   21.0678 C   0  0  0  0  0  0  0  0  0  0  0  0
   10.9097   11.8051   18.4804 C   0  0  0  0  0  0  0  0  0  0  0  0
   11.2280   12.9135   17.5669 C   0  0  0  0  0  0  0  0  0  0  0  0
   12.3782    5.4231   20.7777 C   0  0  0  0  0  0  0  0  0  0  0  0
    7.7365    4.6508   21.6987 C   0  0  0  0  0  0  0  0  0  0  0  0
   13.0186   11.0102   18.0020 C   0  0  0  0  0  0  0  0  0  0  0  0
    8.6628    5.7088   21.8871 N   0  0  0  0  0  0  0  0  0  0  0  0
    5.6516    3.5258   21.9140 C   0  0  0  0  0  0  0  0  0  0  0  0
   11.5863    9.6815   19.4539 C   0  0  0  0  0  0  0  0  0  0  0  0
   12.9648    4.1543   20.9205 C   0  0  0  0  0  0  0  0  0  0  0  0
    8.2089    3.6265   20.8929 C   0  0  0  0  0  0  0  0  0  0  0  0
    7.3827    2.5724   20.5432 C   0  0  0  0  0  0  0  0  0  0  0  0
   11.1529    7.2750   20.8025 C   0  0  0  0  0  0  0  0  0  0  0  0
   10.2573    8.3215   20.9827 C   0  0  0  0  0  0  0  0  0  0  0  0
   11.1606    5.9378   21.2366 N   0  0  0  0  0  0  0  0  0  0  0  0
    9.8932   11.6736   19.0677 O   0  0  0  0  0  0  0  0  0  0  0  0
    6.4470    4.5850   22.2321 C   0  0  0  0  0  0  0  0  0  0  0  0
    8.4619    6.9895   22.2968 C   0  0  0  0  0  0  0  0  0  0  0  0
   12.2747    7.5102   20.0420 C   0  0  0  0  0  0  0  0  0  0  0  0
   14.2544    6.2142   19.4191 C   0  0  0  0  0  0  0  0  0  0  0  0
   13.0695    6.3705   20.0375 N   0  0  0  0  0  0  0  0  0  0  0  0
    9.1913    8.0876   21.8361 N   0  0  0  0  0  0  0  0  0  0  0  0
   10.4739    9.4813   20.2889 C   0  0  0  0  0  0  0  0  0  0  0  0
    7.5551    7.1270   23.1200 O   0  0  0  0  0  0  0  0  0  0  0  0
  1 11  4  0
  1 21  4  0
  2  4  1  0
  2  8  1  0
  2 11  1  0
  3 10  4  0
  3 14  4  0
  4  5  1  0
  4 18  2  0
  6 12  1  0
  6 17  4  0
  6 23  4  0
  7  9  1  0
  7 13  4  0
  7 19  4  0
  9 20  1  0
 10 19  4  0
 11 25  4  0
 13 14  4  0
 15 16  4  0
 15 17  4  0
 15 21  4  0
 16 24  1  0
 16 25  4  0
 20 24  1  0
 20 26  2  0
 21 23  4  0
 22 23  1  0
M  END
$$$$

 Created by Python create_sdf_string function

 26 28  0  0  0  0  0  0  0  0999 V2000
   12.4616    8.6700   19.4180 N   0  0  0  0  0  0  0  0  0  0  0  0
   11.8329   10.8148   18.6769 N   0  0  0  0  0  0  0  0  0  0  0  0
    6.1021    2.5564   21.0678 C   0  0  0  0  0  0  0  0  0  0  0  0
   10.9097   11.8051   18.4804 C   0  0  0  0  0  0  0  0  0  0  0  0
   11.2280   12.9135   17.5669 C   0  0  0  0  0  0  0  0  0  0  0  0
   12.3782    5.4231   20.7777 C   0  0  0  0  0  0  0  0  0  0  0  0
    7.7365    4.6508   21.6987 C   0  0  0  0  0  0  0  0  0  0  0  0
   13.0186   11.0102   18.0020 C   0  0  0  0  0  0  0  0  0  0  0  0
    8.6628    5.7088   21.8871 N   0  0  0  0  0  0  0  0  0  0  0  0
    5.6516    3.5258   21.9140 C   0  0  0  0  0  0  0  0  0  0  0  0
   11.5863    9.6815   19.4539 C   0  0  0  0  0  0  0  0  0  0  0  0
   12.9648    4.1543   20.9205 C   0  0  0  0  0  0  0  0  0  0  0  0
    8.2089    3.6265   20.8929 C   0  0  0  0  0  0  0  0  0  0  0  0
    7.3827    2.5724   20.5432 C   0  0  0  0  0  0  0  0  0  0  0  0
   11.1529    7.2750   20.8025 C   0  0  0  0  0  0  0  0  0  0  0  0
   10.2573    8.3215   20.9827 C   0  0  0  0  0  0  0  0  0  0  0  0
   11.1606    5.9378   21.2366 N   0  0  0  0  0  0  0  0  0  0  0  0
    9.8932   11.6736   19.0677 O   0  0  0  0  0  0  0  0  0  0  0  0
    6.4470    4.5850   22.2321 C   0  0  0  0  0  0  0  0  0  0  0  0
    8.4619    6.9895   22.2968 C   0  0  0  0  0  0  0  0  0  0  0  0
   12.2747    7.5102   20.0420 C   0  0  0  0  0  0  0  0  0  0  0  0
   14.2544    6.2142   19.4191 C   0  0  0  0  0  0  0  0  0  0  0  0
   13.0695    6.3705   20.0375 N   0  0  0  0  0  0  0  0  0  0  0  0
    9.1913    8.0876   21.8361 N   0  0  0  0  0  0  0  0  0  0  0  0
   10.4739    9.4813   20.2889 C   0  0  0  0  0  0  0  0  0  0  0  0
    7.5551    7.1270   23.1200 O   0  0  0  0  0  0  0  0  0  0  0  0
  1 11  4  0
  1 21  4  0
  2  4  1  0
  2  8  1  0
  2 11  1  0
  3 10  4  0
  3 14  4  0
  4  5  1  0
  4 18  2  0
  6 12  1  0
  6 17  4  0
  6 23  4  0
  7  9  1  0
  7 13  4  0
  7 19  4  0
  9 20  1  0
 10 19  4  0
 11 25  4  0
 13 14  4  0
 15 16  4  0
 15 17  4  0
 15 21  4  0
 16 24  1  0
 16 25  4  0
 20 24  1  0
 20 26  2  0
 21 23  4  0
 22 23  1  0
M  END
$$$$

 Created by Python create_sdf_string function

 26 28  0  0  0  0  0  0  0  0999 V2000
   12.4616    8.6700   19.4180 N   0  0  0  0  0  0  0  0  0  0  0  0
   11.8329   10.8148   18.6769 N   0  0  0  0  0  0  0  0  0  0  0  0
    6.1021    2.5564   21.0678 C   0  0  0  0  0  0  0  0  0  0  0  0
   10.9097   11.8051   18.4804 C   0  0  0  0  0  0  0  0  0  0  0  0
   11.2280   12.9135   17.5669 C   0  0  0  0  0  0  0  0  0  0  0  0
   12.3782    5.4231   20.7777 C   0  0  0  0  0  0  0  0  0  0  0  0
    7.7365    4.6508   21.6987 C   0  0  0  0  0  0  0  0  0  0  0  0
   13.0186   11.0102   18.0020 C   0  0  0  0  0  0  0  0  0  0  0  0
    8.6628    5.7088   21.8871 N   0  0  0  0  0  0  0  0  0  0  0  0
    5.6516    3.5258   21.9140 C   0  0  0  0  0  0  0  0  0  0  0  0
   11.5863    9.6815   19.4539 C   0  0  0  0  0  0  0  0  0  0  0  0
   12.9648    4.1543   20.9205 C   0  0  0  0  0  0  0  0  0  0  0  0
    8.2089    3.6265   20.8929 C   0  0  0  0  0  0  0  0  0  0  0  0
    7.3827    2.5724   20.5432 C   0  0  0  0  0  0  0  0  0  0  0  0
   11.1529    7.2750   20.8025 C   0  0  0  0  0  0  0  0  0  0  0  0
   10.2573    8.3215   20.9827 C   0  0  0  0  0  0  0  0  0  0  0  0
   11.1606    5.9378   21.2366 N   0  0  0  0  0  0  0  0  0  0  0  0
    9.8932   11.6736   19.0677 O   0  0  0  0  0  0  0  0  0  0  0  0
    6.4470    4.5850   22.2321 C   0  0  0  0  0  0  0  0  0  0  0  0
    8.4619    6.9895   22.2968 C   0  0  0  0  0  0  0  0  0  0  0  0
   12.2747    7.5102   20.0420 C   0  0  0  0  0  0  0  0  0  0  0  0
   14.2544    6.2142   19.4191 C   0  0  0  0  0  0  0  0  0  0  0  0
   13.0695    6.3705   20.0375 N   0  0  0  0  0  0  0  0  0  0  0  0
    9.1913    8.0876   21.8361 N   0  0  0  0  0  0  0  0  0  0  0  0
   10.4739    9.4813   20.2889 C   0  0  0  0  0  0  0  0  0  0  0  0
    7.5551    7.1270   23.1200 O   0  0  0  0  0  0  0  0  0  0  0  0
  1 11  4  0
  1 21  4  0
  2  4  1  0
  2  8  1  0
  2 11  1  0
  3 10  4  0
  3 14  4  0
  4  5  1  0
  4 18  2  0
  6 12  1  0
  6 17  4  0
  6 23  4  0
  7  9  1  0
  7 13  4  0
  7 19  4  0
  9 20  1  0
 10 19  4  0
 11 25  4  0
 13 14  4  0
 15 16  4  0
 15 17  4  0
 15 21  4  0
 16 24  1  0
 16 25  4  0
 20 24  1  0
 20 26  2  0
 21 23  4  0
 22 23  1  0
M  END
$$$$

 Created by Python create_sdf_string function

 26 28  0  0  0  0  0  0  0  0999 V2000
   12.4616    8.6700   19.4180 N   0  0  0  0  0  0  0  0  0  0  0  0
   11.8329   10.8148   18.6769 N   0  0  0  0  0  0  0  0  0  0  0  0
    6.1021    2.5564   21.0678 C   0  0  0  0  0  0  0  0  0  0  0  0
   10.9097   11.8051   18.4804 C   0  0  0  0  0  0  0  0  0  0  0  0
   11.2280   12.9135   17.5669 C   0  0  0  0  0  0  0  0  0  0  0  0
   12.3782    5.4231   20.7777 C   0  0  0  0  0  0  0  0  0  0  0  0
    7.7365    4.6508   21.6987 C   0  0  0  0  0  0  0  0  0  0  0  0
   13.0186   11.0102   18.0020 C   0  0  0  0  0  0  0  0  0  0  0  0
    8.6628    5.7088   21.8871 N   0  0  0  0  0  0  0  0  0  0  0  0
    5.6516    3.5258   21.9140 C   0  0  0  0  0  0  0  0  0  0  0  0
   11.5863    9.6815   19.4539 C   0  0  0  0  0  0  0  0  0  0  0  0
   12.9648    4.1543   20.9205 C   0  0  0  0  0  0  0  0  0  0  0  0
    8.2089    3.6265   20.8929 C   0  0  0  0  0  0  0  0  0  0  0  0
    7.3827    2.5724   20.5432 C   0  0  0  0  0  0  0  0  0  0  0  0
   11.1529    7.2750   20.8025 C   0  0  0  0  0  0  0  0  0  0  0  0
   10.2573    8.3215   20.9827 C   0  0  0  0  0  0  0  0  0  0  0  0
   11.1606    5.9378   21.2366 N   0  0  0  0  0  0  0  0  0  0  0  0
    9.8932   11.6736   19.0677 O   0  0  0  0  0  0  0  0  0  0  0  0
    6.4470    4.5850   22.2321 C   0  0  0  0  0  0  0  0  0  0  0  0
    8.4619    6.9895   22.2968 C   0  0  0  0  0  0  0  0  0  0  0  0
   12.2747    7.5102   20.0420 C   0  0  0  0  0  0  0  0  0  0  0  0
   14.2544    6.2142   19.4191 C   0  0  0  0  0  0  0  0  0  0  0  0
   13.0695    6.3705   20.0375 N   0  0  0  0  0  0  0  0  0  0  0  0
    9.1913    8.0876   21.8361 N   0  0  0  0  0  0  0  0  0  0  0  0
   10.4739    9.4813   20.2889 C   0  0  0  0  0  0  0  0  0  0  0  0
    7.5551    7.1270   23.1200 O   0  0  0  0  0  0  0  0  0  0  0  0
  1 11  4  0
  1 21  4  0
  2  4  1  0
  2  8  1  0
  2 11  1  0
  3 10  4  0
  3 14  4  0
  4  5  1  0
  4 18  2  0
  6 12  1  0
  6 17  4  0
  6 23  4  0
  7  9  1  0
  7 13  4  0
  7 19  4  0
  9 20  1  0
 10 19  4  0
 11 25  4  0
 13 14  4  0
 15 16  4  0
 15 17  4  0
 15 21  4  0
 16 24  1  0
 16 25  4  0
 20 24  1  0
 20 26  2  0
 21 23  4  0
 22 23  1  0
M  END
$$$$

 Created by Python create_sdf_string function

 26 28  0  0  0  0  0  0  0  0999 V2000
   12.4616    8.6700   19.4180 N   0  0  0  0  0  0  0  0  0  0  0  0
   11.8329   10.8148   18.6769 N   0  0  0  0  0  0  0  0  0  0  0  0
    6.1021    2.5564   21.0678 C   0  0  0  0  0  0  0  0  0  0  0  0
   10.9097   11.8051   18.4804 C   0  0  0  0  0  0  0  0  0  0  0  0
   11.2280   12.9135   17.5669 C   0  0  0  0  0  0  0  0  0  0  0  0
   12.3782    5.4231   20.7777 C   0  0  0  0  0  0  0  0  0  0  0  0
    7.7365    4.6508   21.6987 C   0  0  0  0  0  0  0  0  0  0  0  0
   13.0186   11.0102   18.0020 C   0  0  0  0  0  0  0  0  0  0  0  0
    8.6628    5.7088   21.8871 N   0  0  0  0  0  0  0  0  0  0  0  0
    5.6516    3.5258   21.9140 C   0  0  0  0  0  0  0  0  0  0  0  0
   11.5863    9.6815   19.4539 C   0  0  0  0  0  0  0  0  0  0  0  0
   12.9648    4.1543   20.9205 C   0  0  0  0  0  0  0  0  0  0  0  0
    8.2089    3.6265   20.8929 C   0  0  0  0  0  0  0  0  0  0  0  0
    7.3827    2.5724   20.5432 C   0  0  0  0  0  0  0  0  0  0  0  0
   11.1529    7.2750   20.8025 C   0  0  0  0  0  0  0  0  0  0  0  0
   10.2573    8.3215   20.9827 C   0  0  0  0  0  0  0  0  0  0  0  0
   11.1606    5.9378   21.2366 N   0  0  0  0  0  0  0  0  0  0  0  0
    9.8932   11.6736   19.0677 O   0  0  0  0  0  0  0  0  0  0  0  0
    6.4470    4.5850   22.2321 C   0  0  0  0  0  0  0  0  0  0  0  0
    8.4619    6.9895   22.2968 C   0  0  0  0  0  0  0  0  0  0  0  0
   12.2747    7.5102   20.0420 C   0  0  0  0  0  0  0  0  0  0  0  0
   14.2544    6.2142   19.4191 C   0  0  0  0  0  0  0  0  0  0  0  0
   13.0695    6.3705   20.0375 N   0  0  0  0  0  0  0  0  0  0  0  0
    9.1913    8.0876   21.8361 N   0  0  0  0  0  0  0  0  0  0  0  0
   10.4739    9.4813   20.2889 C   0  0  0  0  0  0  0  0  0  0  0  0
    7.5551    7.1270   23.1200 O   0  0  0  0  0  0  0  0  0  0  0  0
  1 11  4  0
  1 21  4  0
  2  4  1  0
  2  8  1  0
  2 11  1  0
  3 10  4  0
  3 14  4  0
  4  5  1  0
  4 18  2  0
  6 12  1  0
  6 17  4  0
  6 23  4  0
  7  9  1  0
  7 13  4  0
  7 19  4  0
  9 20  1  0
 10 19  4  0
 11 25  4  0
 13 14  4  0
 15 16  4  0
 15 17  4  0
 15 21  4  0
 16 24  1  0
 16 25  4  0
 20 24  1  0
 20 26  2  0
 21 23  4  0
 22 23  1  0
M  END
$$$$

 Created by Python create_sdf_string function

 26 28  0  0  0  0  0  0  0  0999 V2000
   12.4616    8.6700   19.4180 N   0  0  0  0  0  0  0  0  0  0  0  0
   11.8329   10.8148   18.6769 N   0  0  0  0  0  0  0  0  0  0  0  0
    6.1021    2.5564   21.0678 C   0  0  0  0  0  0  0  0  0  0  0  0
   10.9097   11.8051   18.4804 C   0  0  0  0  0  0  0  0  0  0  0  0
   11.2280   12.9135   17.5669 C   0  0  0  0  0  0  0  0  0  0  0  0
   12.3782    5.4231   20.7777 C   0  0  0  0  0  0  0  0  0  0  0  0
    7.7365    4.6508   21.6987 C   0  0  0  0  0  0  0  0  0  0  0  0
   13.0186   11.0102   18.0020 C   0  0  0  0  0  0  0  0  0  0  0  0
    8.6628    5.7088   21.8871 N   0  0  0  0  0  0  0  0  0  0  0  0
    5.6516    3.5258   21.9140 C   0  0  0  0  0  0  0  0  0  0  0  0
   11.5863    9.6815   19.4539 C   0  0  0  0  0  0  0  0  0  0  0  0
   12.9648    4.1543   20.9205 C   0  0  0  0  0  0  0  0  0  0  0  0
    8.2089    3.6265   20.8929 C   0  0  0  0  0  0  0  0  0  0  0  0
    7.3827    2.5724   20.5432 C   0  0  0  0  0  0  0  0  0  0  0  0
   11.1529    7.2750   20.8025 C   0  0  0  0  0  0  0  0  0  0  0  0
   10.2573    8.3215   20.9827 C   0  0  0  0  0  0  0  0  0  0  0  0
   11.1606    5.9378   21.2366 N   0  0  0  0  0  0  0  0  0  0  0  0
    9.8932   11.6736   19.0677 O   0  0  0  0  0  0  0  0  0  0  0  0
    6.4470    4.5850   22.2321 C   0  0  0  0  0  0  0  0  0  0  0  0
    8.4619    6.9895   22.2968 C   0  0  0  0  0  0  0  0  0  0  0  0
   12.2747    7.5102   20.0420 C   0  0  0  0  0  0  0  0  0  0  0  0
   14.2544    6.2142   19.4191 C   0  0  0  0  0  0  0  0  0  0  0  0
   13.0695    6.3705   20.0375 N   0  0  0  0  0  0  0  0  0  0  0  0
    9.1913    8.0876   21.8361 N   0  0  0  0  0  0  0  0  0  0  0  0
   10.4739    9.4813   20.2889 C   0  0  0  0  0  0  0  0  0  0  0  0
    7.5551    7.1270   23.1200 O   0  0  0  0  0  0  0  0  0  0  0  0
  1 11  4  0
  1 21  4  0
  2  4  1  0
  2  8  1  0
  2 11  1  0
  3 10  4  0
  3 14  4  0
  4  5  1  0
  4 18  2  0
  6 12  1  0
  6 17  4  0
  6 23  4  0
  7  9  1  0
  7 13  4  0
  7 19  4  0
  9 20  1  0
 10 19  4  0
 11 25  4  0
 13 14  4  0
 15 16  4  0
 15 17  4  0
 15 21  4  0
 16 24  1  0
 16 25  4  0
 20 24  1  0
 20 26  2  0
 21 23  4  0
 22 23  1  0
M  END
$$$$

 Created by Python create_sdf_string function

 26 28  0  0  0  0  0  0  0  0999 V2000
   12.4616    8.6700   19.4180 N   0  0  0  0  0  0  0  0  0  0  0  0
   11.8329   10.8148   18.6769 N   0  0  0  0  0  0  0  0  0  0  0  0
    6.1021    2.5564   21.0678 C   0  0  0  0  0  0  0  0  0  0  0  0
   10.9097   11.8051   18.4804 C   0  0  0  0  0  0  0  0  0  0  0  0
   11.2280   12.9135   17.5669 C   0  0  0  0  0  0  0  0  0  0  0  0
   12.3782    5.4231   20.7777 C   0  0  0  0  0  0  0  0  0  0  0  0
    7.7365    4.6508   21.6987 C   0  0  0  0  0  0  0  0  0  0  0  0
   13.0186   11.0102   18.0020 C   0  0  0  0  0  0  0  0  0  0  0  0
    8.6628    5.7088   21.8871 N   0  0  0  0  0  0  0  0  0  0  0  0
    5.6516    3.5258   21.9140 C   0  0  0  0  0  0  0  0  0  0  0  0
   11.5863    9.6815   19.4539 C   0  0  0  0  0  0  0  0  0  0  0  0
   12.9648    4.1543   20.9205 C   0  0  0  0  0  0  0  0  0  0  0  0
    8.2089    3.6265   20.8929 C   0  0  0  0  0  0  0  0  0  0  0  0
    7.3827    2.5724   20.5432 C   0  0  0  0  0  0  0  0  0  0  0  0
   11.1529    7.2750   20.8025 C   0  0  0  0  0  0  0  0  0  0  0  0
   10.2573    8.3215   20.9827 C   0  0  0  0  0  0  0  0  0  0  0  0
   11.1606    5.9378   21.2366 N   0  0  0  0  0  0  0  0  0  0  0  0
    9.8932   11.6736   19.0677 O   0  0  0  0  0  0  0  0  0  0  0  0
    6.4470    4.5850   22.2321 C   0  0  0  0  0  0  0  0  0  0  0  0
    8.4619    6.9895   22.2968 C   0  0  0  0  0  0  0  0  0  0  0  0
   12.2747    7.5102   20.0420 C   0  0  0  0  0  0  0  0  0  0  0  0
   14.2544    6.2142   19.4191 C   0  0  0  0  0  0  0  0  0  0  0  0
   13.0695    6.3705   20.0375 N   0  0  0  0  0  0  0  0  0  0  0  0
    9.1913    8.0876   21.8361 N   0  0  0  0  0  0  0  0  0  0  0  0
   10.4739    9.4813   20.2889 C   0  0  0  0  0  0  0  0  0  0  0  0
    7.5551    7.1270   23.1200 O   0  0  0  0  0  0  0  0  0  0  0  0
  1 11  4  0
  1 21  4  0
  2  4  1  0
  2  8  1  0
  2 11  1  0
  3 10  4  0
  3 14  4  0
  4  5  1  0
  4 18  2  0
  6 12  1  0
  6 17  4  0
  6 23  4  0
  7  9  1  0
  7 13  4  0
  7 19  4  0
  9 20  1  0
 10 19  4  0
 11 25  4  0
 13 14  4  0
 15 16  4  0
 15 17  4  0
 15 21  4  0
 16 24  1  0
 16 25  4  0
 20 24  1  0
 20 26  2  0
 21 23  4  0
 22 23  1  0
M  END
$$$$

 Created by Python create_sdf_string function

 26 28  0  0  0  0  0  0  0  0999 V2000
   12.4616    8.6700   19.4180 N   0  0  0  0  0  0  0  0  0  0  0  0
   11.8329   10.8148   18.6769 N   0  0  0  0  0  0  0  0  0  0  0  0
    6.1021    2.5564   21.0678 C   0  0  0  0  0  0  0  0  0  0  0  0
   10.9097   11.8051   18.4804 C   0  0  0  0  0  0  0  0  0  0  0  0
   11.2280   12.9135   17.5669 C   0  0  0  0  0  0  0  0  0  0  0  0
   12.3782    5.4231   20.7777 C   0  0  0  0  0  0  0  0  0  0  0  0
    7.7365    4.6508   21.6987 C   0  0  0  0  0  0  0  0  0  0  0  0
   13.0186   11.0102   18.0020 C   0  0  0  0  0  0  0  0  0  0  0  0
    8.6628    5.7088   21.8871 N   0  0  0  0  0  0  0  0  0  0  0  0
    5.6516    3.5258   21.9140 C   0  0  0  0  0  0  0  0  0  0  0  0
   11.5863    9.6815   19.4539 C   0  0  0  0  0  0  0  0  0  0  0  0
   12.9648    4.1543   20.9205 C   0  0  0  0  0  0  0  0  0  0  0  0
    8.2089    3.6265   20.8929 C   0  0  0  0  0  0  0  0  0  0  0  0
    7.3827    2.5724   20.5432 C   0  0  0  0  0  0  0  0  0  0  0  0
   11.1529    7.2750   20.8025 C   0  0  0  0  0  0  0  0  0  0  0  0
   10.2573    8.3215   20.9827 C   0  0  0  0  0  0  0  0  0  0  0  0
   11.1606    5.9378   21.2366 N   0  0  0  0  0  0  0  0  0  0  0  0
    9.8932   11.6736   19.0677 O   0  0  0  0  0  0  0  0  0  0  0  0
    6.4470    4.5850   22.2321 C   0  0  0  0  0  0  0  0  0  0  0  0
    8.4619    6.9895   22.2968 C   0  0  0  0  0  0  0  0  0  0  0  0
   12.2747    7.5102   20.0420 C   0  0  0  0  0  0  0  0  0  0  0  0
   14.2544    6.2142   19.4191 C   0  0  0  0  0  0  0  0  0  0  0  0
   13.0695    6.3705   20.0375 N   0  0  0  0  0  0  0  0  0  0  0  0
    9.1913    8.0876   21.8361 N   0  0  0  0  0  0  0  0  0  0  0  0
   10.4739    9.4813   20.2889 C   0  0  0  0  0  0  0  0  0  0  0  0
    7.5551    7.1270   23.1200 O   0  0  0  0  0  0  0  0  0  0  0  0
  1 11  4  0
  1 21  4  0
  2  4  1  0
  2  8  1  0
  2 11  1  0
  3 10  4  0
  3 14  4  0
  4  5  1  0
  4 18  2  0
  6 12  1  0
  6 17  4  0
  6 23  4  0
  7  9  1  0
  7 13  4  0
  7 19  4  0
  9 20  1  0
 10 19  4  0
 11 25  4  0
 13 14  4  0
 15 16  4  0
 15 17  4  0
 15 21  4  0
 16 24  1  0
 16 25  4  0
 20 24  1  0
 20 26  2  0
 21 23  4  0
 22 23  1  0
M  END
$$$$

 Created by Python create_sdf_string function

 26 28  0  0  0  0  0  0  0  0999 V2000
   12.4616    8.6700   19.4180 N   0  0  0  0  0  0  0  0  0  0  0  0
   11.8329   10.8148   18.6769 N   0  0  0  0  0  0  0  0  0  0  0  0
    6.1021    2.5564   21.0678 C   0  0  0  0  0  0  0  0  0  0  0  0
   10.9097   11.8051   18.4804 C   0  0  0  0  0  0  0  0  0  0  0  0
   11.2280   12.9135   17.5669 C   0  0  0  0  0  0  0  0  0  0  0  0
   12.3782    5.4231   20.7777 C   0  0  0  0  0  0  0  0  0  0  0  0
    7.7365    4.6508   21.6987 C   0  0  0  0  0  0  0  0  0  0  0  0
   13.0186   11.0102   18.0020 C   0  0  0  0  0  0  0  0  0  0  0  0
    8.6628    5.7088   21.8871 N   0  0  0  0  0  0  0  0  0  0  0  0
    5.6516    3.5258   21.9140 C   0  0  0  0  0  0  0  0  0  0  0  0
   11.5863    9.6815   19.4539 C   0  0  0  0  0  0  0  0  0  0  0  0
   12.9648    4.1543   20.9205 C   0  0  0  0  0  0  0  0  0  0  0  0
    8.2089    3.6265   20.8929 C   0  0  0  0  0  0  0  0  0  0  0  0
    7.3827    2.5724   20.5432 C   0  0  0  0  0  0  0  0  0  0  0  0
   11.1529    7.2750   20.8025 C   0  0  0  0  0  0  0  0  0  0  0  0
   10.2573    8.3215   20.9827 C   0  0  0  0  0  0  0  0  0  0  0  0
   11.1606    5.9378   21.2366 N   0  0  0  0  0  0  0  0  0  0  0  0
    9.8932   11.6736   19.0677 O   0  0  0  0  0  0  0  0  0  0  0  0
    6.4470    4.5850   22.2321 C   0  0  0  0  0  0  0  0  0  0  0  0
    8.4619    6.9895   22.2968 C   0  0  0  0  0  0  0  0  0  0  0  0
   12.2747    7.5102   20.0420 C   0  0  0  0  0  0  0  0  0  0  0  0
   14.2544    6.2142   19.4191 C   0  0  0  0  0  0  0  0  0  0  0  0
   13.0695    6.3705   20.0375 N   0  0  0  0  0  0  0  0  0  0  0  0
    9.1913    8.0876   21.8361 N   0  0  0  0  0  0  0  0  0  0  0  0
   10.4739    9.4813   20.2889 C   0  0  0  0  0  0  0  0  0  0  0  0
    7.5551    7.1270   23.1200 O   0  0  0  0  0  0  0  0  0  0  0  0
  1 11  4  0
  1 21  4  0
  2  4  1  0
  2  8  1  0
  2 11  1  0
  3 10  4  0
  3 14  4  0
  4  5  1  0
  4 18  2  0
  6 12  1  0
  6 17  4  0
  6 23  4  0
  7  9  1  0
  7 13  4  0
  7 19  4  0
  9 20  1  0
 10 19  4  0
 11 25  4  0
 13 14  4  0
 15 16  4  0
 15 17  4  0
 15 21  4  0
 16 24  1  0
 16 25  4  0
 20 24  1  0
 20 26  2  0
 21 23  4  0
 22 23  1  0
M  END
$$$$

 Created by Python create_sdf_string function

 26 28  0  0  0  0  0  0  0  0999 V2000
   12.4616    8.6700   19.4180 N   0  0  0  0  0  0  0  0  0  0  0  0
   11.8329   10.8148   18.6769 N   0  0  0  0  0  0  0  0  0  0  0  0
    6.1021    2.5564   21.0678 C   0  0  0  0  0  0  0  0  0  0  0  0
   10.9097   11.8051   18.4804 C   0  0  0  0  0  0  0  0  0  0  0  0
   11.2280   12.9135   17.5669 C   0  0  0  0  0  0  0  0  0  0  0  0
   12.3782    5.4231   20.7777 C   0  0  0  0  0  0  0  0  0  0  0  0
    7.7365    4.6508   21.6987 C   0  0  0  0  0  0  0  0  0  0  0  0
   13.0186   11.0102   18.0020 C   0  0  0  0  0  0  0  0  0  0  0  0
    8.6628    5.7088   21.8871 N   0  0  0  0  0  0  0  0  0  0  0  0
    5.6516    3.5258   21.9140 C   0  0  0  0  0  0  0  0  0  0  0  0
   11.5863    9.6815   19.4539 C   0  0  0  0  0  0  0  0  0  0  0  0
   12.9648    4.1543   20.9205 C   0  0  0  0  0  0  0  0  0  0  0  0
    8.2089    3.6265   20.8929 C   0  0  0  0  0  0  0  0  0  0  0  0
    7.3827    2.5724   20.5432 C   0  0  0  0  0  0  0  0  0  0  0  0
   11.1529    7.2750   20.8025 C   0  0  0  0  0  0  0  0  0  0  0  0
   10.2573    8.3215   20.9827 C   0  0  0  0  0  0  0  0  0  0  0  0
   11.1606    5.9378   21.2366 N   0  0  0  0  0  0  0  0  0  0  0  0
    9.8932   11.6736   19.0677 O   0  0  0  0  0  0  0  0  0  0  0  0
    6.4470    4.5850   22.2321 C   0  0  0  0  0  0  0  0  0  0  0  0
    8.4619    6.9895   22.2968 C   0  0  0  0  0  0  0  0  0  0  0  0
   12.2747    7.5102   20.0420 C   0  0  0  0  0  0  0  0  0  0  0  0
   14.2544    6.2142   19.4191 C   0  0  0  0  0  0  0  0  0  0  0  0
   13.0695    6.3705   20.0375 N   0  0  0  0  0  0  0  0  0  0  0  0
    9.1913    8.0876   21.8361 N   0  0  0  0  0  0  0  0  0  0  0  0
   10.4739    9.4813   20.2889 C   0  0  0  0  0  0  0  0  0  0  0  0
    7.5551    7.1270   23.1200 O   0  0  0  0  0  0  0  0  0  0  0  0
  1 11  4  0
  1 21  4  0
  2  4  1  0
  2  8  1  0
  2 11  1  0
  3 10  4  0
  3 14  4  0
  4  5  1  0
  4 18  2  0
  6 12  1  0
  6 17  4  0
  6 23  4  0
  7  9  1  0
  7 13  4  0
  7 19  4  0
  9 20  1  0
 10 19  4  0
 11 25  4  0
 13 14  4  0
 15 16  4  0
 15 17  4  0
 15 21  4  0
 16 24  1  0
 16 25  4  0
 20 24  1  0
 20 26  2  0
 21 23  4  0
 22 23  1  0
M  END
$$$$

 Created by Python create_sdf_string function

 26 28  0  0  0  0  0  0  0  0999 V2000
   12.4616    8.6700   19.4180 N   0  0  0  0  0  0  0  0  0  0  0  0
   11.8329   10.8148   18.6769 N   0  0  0  0  0  0  0  0  0  0  0  0
    6.1021    2.5564   21.0678 C   0  0  0  0  0  0  0  0  0  0  0  0
   10.9097   11.8051   18.4804 C   0  0  0  0  0  0  0  0  0  0  0  0
   11.2280   12.9135   17.5669 C   0  0  0  0  0  0  0  0  0  0  0  0
   12.3782    5.4231   20.7777 C   0  0  0  0  0  0  0  0  0  0  0  0
    7.7365    4.6508   21.6987 C   0  0  0  0  0  0  0  0  0  0  0  0
   13.0186   11.0102   18.0020 C   0  0  0  0  0  0  0  0  0  0  0  0
    8.6628    5.7088   21.8871 N   0  0  0  0  0  0  0  0  0  0  0  0
    5.6516    3.5258   21.9140 C   0  0  0  0  0  0  0  0  0  0  0  0
   11.5863    9.6815   19.4539 C   0  0  0  0  0  0  0  0  0  0  0  0
   12.9648    4.1543   20.9205 C   0  0  0  0  0  0  0  0  0  0  0  0
    8.2089    3.6265   20.8929 C   0  0  0  0  0  0  0  0  0  0  0  0
    7.3827    2.5724   20.5432 C   0  0  0  0  0  0  0  0  0  0  0  0
   11.1529    7.2750   20.8025 C   0  0  0  0  0  0  0  0  0  0  0  0
   10.2573    8.3215   20.9827 C   0  0  0  0  0  0  0  0  0  0  0  0
   11.1606    5.9378   21.2366 N   0  0  0  0  0  0  0  0  0  0  0  0
    9.8932   11.6736   19.0677 O   0  0  0  0  0  0  0  0  0  0  0  0
    6.4470    4.5850   22.2321 C   0  0  0  0  0  0  0  0  0  0  0  0
    8.4619    6.9895   22.2968 C   0  0  0  0  0  0  0  0  0  0  0  0
   12.2747    7.5102   20.0420 C   0  0  0  0  0  0  0  0  0  0  0  0
   14.2544    6.2142   19.4191 C   0  0  0  0  0  0  0  0  0  0  0  0
   13.0695    6.3705   20.0375 N   0  0  0  0  0  0  0  0  0  0  0  0
    9.1913    8.0876   21.8361 N   0  0  0  0  0  0  0  0  0  0  0  0
   10.4739    9.4813   20.2889 C   0  0  0  0  0  0  0  0  0  0  0  0
    7.5551    7.1270   23.1200 O   0  0  0  0  0  0  0  0  0  0  0  0
  1 11  4  0
  1 21  4  0
  2  4  1  0
  2  8  1  0
  2 11  1  0
  3 10  4  0
  3 14  4  0
  4  5  1  0
  4 18  2  0
  6 12  1  0
  6 17  4  0
  6 23  4  0
  7  9  1  0
  7 13  4  0
  7 19  4  0
  9 20  1  0
 10 19  4  0
 11 25  4  0
 13 14  4  0
 15 16  4  0
 15 17  4  0
 15 21  4  0
 16 24  1  0
 16 25  4  0
 20 24  1  0
 20 26  2  0
 21 23  4  0
 22 23  1  0
M  END
$$$$

 Created by Python create_sdf_string function

 26 28  0  0  0  0  0  0  0  0999 V2000
   12.4616    8.6700   19.4180 N   0  0  0  0  0  0  0  0  0  0  0  0
   11.8329   10.8148   18.6769 N   0  0  0  0  0  0  0  0  0  0  0  0
    6.1021    2.5564   21.0678 C   0  0  0  0  0  0  0  0  0  0  0  0
   10.9097   11.8051   18.4804 C   0  0  0  0  0  0  0  0  0  0  0  0
   11.2280   12.9135   17.5669 C   0  0  0  0  0  0  0  0  0  0  0  0
   12.3782    5.4231   20.7777 C   0  0  0  0  0  0  0  0  0  0  0  0
    7.7365    4.6508   21.6987 C   0  0  0  0  0  0  0  0  0  0  0  0
   13.0186   11.0102   18.0020 C   0  0  0  0  0  0  0  0  0  0  0  0
    8.6628    5.7088   21.8871 N   0  0  0  0  0  0  0  0  0  0  0  0
    5.6516    3.5258   21.9140 C   0  0  0  0  0  0  0  0  0  0  0  0
   11.5863    9.6815   19.4539 C   0  0  0  0  0  0  0  0  0  0  0  0
   12.9648    4.1543   20.9205 C   0  0  0  0  0  0  0  0  0  0  0  0
    8.2089    3.6265   20.8929 C   0  0  0  0  0  0  0  0  0  0  0  0
    7.3827    2.5724   20.5432 C   0  0  0  0  0  0  0  0  0  0  0  0
   11.1529    7.2750   20.8025 C   0  0  0  0  0  0  0  0  0  0  0  0
   10.2573    8.3215   20.9827 C   0  0  0  0  0  0  0  0  0  0  0  0
   11.1606    5.9378   21.2366 N   0  0  0  0  0  0  0  0  0  0  0  0
    9.8932   11.6736   19.0677 O   0  0  0  0  0  0  0  0  0  0  0  0
    6.4470    4.5850   22.2321 C   0  0  0  0  0  0  0  0  0  0  0  0
    8.4619    6.9895   22.2968 C   0  0  0  0  0  0  0  0  0  0  0  0
   12.2747    7.5102   20.0420 C   0  0  0  0  0  0  0  0  0  0  0  0
   14.2544    6.2142   19.4191 C   0  0  0  0  0  0  0  0  0  0  0  0
   13.0695    6.3705   20.0375 N   0  0  0  0  0  0  0  0  0  0  0  0
    9.1913    8.0876   21.8361 N   0  0  0  0  0  0  0  0  0  0  0  0
   10.4739    9.4813   20.2889 C   0  0  0  0  0  0  0  0  0  0  0  0
    7.5551    7.1270   23.1200 O   0  0  0  0  0  0  0  0  0  0  0  0
  1 11  4  0
  1 21  4  0
  2  4  1  0
  2  8  1  0
  2 11  1  0
  3 10  4  0
  3 14  4  0
  4  5  1  0
  4 18  2  0
  6 12  1  0
  6 17  4  0
  6 23  4  0
  7  9  1  0
  7 13  4  0
  7 19  4  0
  9 20  1  0
 10 19  4  0
 11 25  4  0
 13 14  4  0
 15 16  4  0
 15 17  4  0
 15 21  4  0
 16 24  1  0
 16 25  4  0
 20 24  1  0
 20 26  2  0
 21 23  4  0
 22 23  1  0
M  END
$$$$

 Created by Python create_sdf_string function

 26 28  0  0  0  0  0  0  0  0999 V2000
   12.4616    8.6700   19.4180 N   0  0  0  0  0  0  0  0  0  0  0  0
   11.8329   10.8148   18.6769 N   0  0  0  0  0  0  0  0  0  0  0  0
    6.1021    2.5564   21.0678 C   0  0  0  0  0  0  0  0  0  0  0  0
   10.9097   11.8051   18.4804 C   0  0  0  0  0  0  0  0  0  0  0  0
   11.2280   12.9135   17.5669 C   0  0  0  0  0  0  0  0  0  0  0  0
   12.3782    5.4231   20.7777 C   0  0  0  0  0  0  0  0  0  0  0  0
    7.7365    4.6508   21.6987 C   0  0  0  0  0  0  0  0  0  0  0  0
   13.0186   11.0102   18.0020 C   0  0  0  0  0  0  0  0  0  0  0  0
    8.6628    5.7088   21.8871 N   0  0  0  0  0  0  0  0  0  0  0  0
    5.6516    3.5258   21.9140 C   0  0  0  0  0  0  0  0  0  0  0  0
   11.5863    9.6815   19.4539 C   0  0  0  0  0  0  0  0  0  0  0  0
   12.9648    4.1543   20.9205 C   0  0  0  0  0  0  0  0  0  0  0  0
    8.2089    3.6265   20.8929 C   0  0  0  0  0  0  0  0  0  0  0  0
    7.3827    2.5724   20.5432 C   0  0  0  0  0  0  0  0  0  0  0  0
   11.1529    7.2750   20.8025 C   0  0  0  0  0  0  0  0  0  0  0  0
   10.2573    8.3215   20.9827 C   0  0  0  0  0  0  0  0  0  0  0  0
   11.1606    5.9378   21.2366 N   0  0  0  0  0  0  0  0  0  0  0  0
    9.8932   11.6736   19.0677 O   0  0  0  0  0  0  0  0  0  0  0  0
    6.4470    4.5850   22.2321 C   0  0  0  0  0  0  0  0  0  0  0  0
    8.4619    6.9895   22.2968 C   0  0  0  0  0  0  0  0  0  0  0  0
   12.2747    7.5102   20.0420 C   0  0  0  0  0  0  0  0  0  0  0  0
   14.2544    6.2142   19.4191 C   0  0  0  0  0  0  0  0  0  0  0  0
   13.0695    6.3705   20.0375 N   0  0  0  0  0  0  0  0  0  0  0  0
    9.1913    8.0876   21.8361 N   0  0  0  0  0  0  0  0  0  0  0  0
   10.4739    9.4813   20.2889 C   0  0  0  0  0  0  0  0  0  0  0  0
    7.5551    7.1270   23.1200 O   0  0  0  0  0  0  0  0  0  0  0  0
  1 11  4  0
  1 21  4  0
  2  4  1  0
  2  8  1  0
  2 11  1  0
  3 10  4  0
  3 14  4  0
  4  5  1  0
  4 18  2  0
  6 12  1  0
  6 17  4  0
  6 23  4  0
  7  9  1  0
  7 13  4  0
  7 19  4  0
  9 20  1  0
 10 19  4  0
 11 25  4  0
 13 14  4  0
 15 16  4  0
 15 17  4  0
 15 21  4  0
 16 24  1  0
 16 25  4  0
 20 24  1  0
 20 26  2  0
 21 23  4  0
 22 23  1  0
M  END
$$$$

 Created by Python create_sdf_string function

 26 28  0  0  0  0  0  0  0  0999 V2000
   12.4616    8.6700   19.4180 N   0  0  0  0  0  0  0  0  0  0  0  0
   11.8329   10.8148   18.6769 N   0  0  0  0  0  0  0  0  0  0  0  0
    6.1021    2.5564   21.0678 C   0  0  0  0  0  0  0  0  0  0  0  0
   10.9097   11.8051   18.4804 C   0  0  0  0  0  0  0  0  0  0  0  0
   11.2280   12.9135   17.5669 C   0  0  0  0  0  0  0  0  0  0  0  0
   12.3782    5.4231   20.7777 C   0  0  0  0  0  0  0  0  0  0  0  0
    7.7365    4.6508   21.6987 C   0  0  0  0  0  0  0  0  0  0  0  0
   13.0186   11.0102   18.0020 C   0  0  0  0  0  0  0  0  0  0  0  0
    8.6628    5.7088   21.8871 N   0  0  0  0  0  0  0  0  0  0  0  0
    5.6516    3.5258   21.9140 C   0  0  0  0  0  0  0  0  0  0  0  0
   11.5863    9.6815   19.4539 C   0  0  0  0  0  0  0  0  0  0  0  0
   12.9648    4.1543   20.9205 C   0  0  0  0  0  0  0  0  0  0  0  0
    8.2089    3.6265   20.8929 C   0  0  0  0  0  0  0  0  0  0  0  0
    7.3827    2.5724   20.5432 C   0  0  0  0  0  0  0  0  0  0  0  0
   11.1529    7.2750   20.8025 C   0  0  0  0  0  0  0  0  0  0  0  0
   10.2573    8.3215   20.9827 C   0  0  0  0  0  0  0  0  0  0  0  0
   11.1606    5.9378   21.2366 N   0  0  0  0  0  0  0  0  0  0  0  0
    9.8932   11.6736   19.0677 O   0  0  0  0  0  0  0  0  0  0  0  0
    6.4470    4.5850   22.2321 C   0  0  0  0  0  0  0  0  0  0  0  0
    8.4619    6.9895   22.2968 C   0  0  0  0  0  0  0  0  0  0  0  0
   12.2747    7.5102   20.0420 C   0  0  0  0  0  0  0  0  0  0  0  0
   14.2544    6.2142   19.4191 C   0  0  0  0  0  0  0  0  0  0  0  0
   13.0695    6.3705   20.0375 N   0  0  0  0  0  0  0  0  0  0  0  0
    9.1913    8.0876   21.8361 N   0  0  0  0  0  0  0  0  0  0  0  0
   10.4739    9.4813   20.2889 C   0  0  0  0  0  0  0  0  0  0  0  0
    7.5551    7.1270   23.1200 O   0  0  0  0  0  0  0  0  0  0  0  0
  1 11  4  0
  1 21  4  0
  2  4  1  0
  2  8  1  0
  2 11  1  0
  3 10  4  0
  3 14  4  0
  4  5  1  0
  4 18  2  0
  6 12  1  0
  6 17  4  0
  6 23  4  0
  7  9  1  0
  7 13  4  0
  7 19  4  0
  9 20  1  0
 10 19  4  0
 11 25  4  0
 13 14  4  0
 15 16  4  0
 15 17  4  0
 15 21  4  0
 16 24  1  0
 16 25  4  0
 20 24  1  0
 20 26  2  0
 21 23  4  0
 22 23  1  0
M  END
$$$$

 Created by Python create_sdf_string function

 26 28  0  0  0  0  0  0  0  0999 V2000
   12.4616    8.6700   19.4180 N   0  0  0  0  0  0  0  0  0  0  0  0
   11.8329   10.8148   18.6769 N   0  0  0  0  0  0  0  0  0  0  0  0
    6.1021    2.5564   21.0678 C   0  0  0  0  0  0  0  0  0  0  0  0
   10.9097   11.8051   18.4804 C   0  0  0  0  0  0  0  0  0  0  0  0
   11.2280   12.9135   17.5669 C   0  0  0  0  0  0  0  0  0  0  0  0
   12.3782    5.4231   20.7777 C   0  0  0  0  0  0  0  0  0  0  0  0
    7.7365    4.6508   21.6987 C   0  0  0  0  0  0  0  0  0  0  0  0
   13.0186   11.0102   18.0020 C   0  0  0  0  0  0  0  0  0  0  0  0
    8.6628    5.7088   21.8871 N   0  0  0  0  0  0  0  0  0  0  0  0
    5.6516    3.5258   21.9140 C   0  0  0  0  0  0  0  0  0  0  0  0
   11.5863    9.6815   19.4539 C   0  0  0  0  0  0  0  0  0  0  0  0
   12.9648    4.1543   20.9205 C   0  0  0  0  0  0  0  0  0  0  0  0
    8.2089    3.6265   20.8929 C   0  0  0  0  0  0  0  0  0  0  0  0
    7.3827    2.5724   20.5432 C   0  0  0  0  0  0  0  0  0  0  0  0
   11.1529    7.2750   20.8025 C   0  0  0  0  0  0  0  0  0  0  0  0
   10.2573    8.3215   20.9827 C   0  0  0  0  0  0  0  0  0  0  0  0
   11.1606    5.9378   21.2366 N   0  0  0  0  0  0  0  0  0  0  0  0
    9.8932   11.6736   19.0677 O   0  0  0  0  0  0  0  0  0  0  0  0
    6.4470    4.5850   22.2321 C   0  0  0  0  0  0  0  0  0  0  0  0
    8.4619    6.9895   22.2968 C   0  0  0  0  0  0  0  0  0  0  0  0
   12.2747    7.5102   20.0420 C   0  0  0  0  0  0  0  0  0  0  0  0
   14.2544    6.2142   19.4191 C   0  0  0  0  0  0  0  0  0  0  0  0
   13.0695    6.3705   20.0375 N   0  0  0  0  0  0  0  0  0  0  0  0
    9.1913    8.0876   21.8361 N   0  0  0  0  0  0  0  0  0  0  0  0
   10.4739    9.4813   20.2889 C   0  0  0  0  0  0  0  0  0  0  0  0
    7.5551    7.1270   23.1200 O   0  0  0  0  0  0  0  0  0  0  0  0
  1 11  4  0
  1 21  4  0
  2  4  1  0
  2  8  1  0
  2 11  1  0
  3 10  4  0
  3 14  4  0
  4  5  1  0
  4 18  2  0
  6 12  1  0
  6 17  4  0
  6 23  4  0
  7  9  1  0
  7 13  4  0
  7 19  4  0
  9 20  1  0
 10 19  4  0
 11 25  4  0
 13 14  4  0
 15 16  4  0
 15 17  4  0
 15 21  4  0
 16 24  1  0
 16 25  4  0
 20 24  1  0
 20 26  2  0
 21 23  4  0
 22 23  1  0
M  END
$$$$

 Created by Python create_sdf_string function

 26 28  0  0  0  0  0  0  0  0999 V2000
   12.4616    8.6700   19.4180 N   0  0  0  0  0  0  0  0  0  0  0  0
   11.8329   10.8148   18.6769 N   0  0  0  0  0  0  0  0  0  0  0  0
    6.1021    2.5564   21.0678 C   0  0  0  0  0  0  0  0  0  0  0  0
   10.9097   11.8051   18.4804 C   0  0  0  0  0  0  0  0  0  0  0  0
   11.2280   12.9135   17.5669 C   0  0  0  0  0  0  0  0  0  0  0  0
   12.3782    5.4231   20.7777 C   0  0  0  0  0  0  0  0  0  0  0  0
    7.7365    4.6508   21.6987 C   0  0  0  0  0  0  0  0  0  0  0  0
   13.0186   11.0102   18.0020 C   0  0  0  0  0  0  0  0  0  0  0  0
    8.6628    5.7088   21.8871 N   0  0  0  0  0  0  0  0  0  0  0  0
    5.6516    3.5258   21.9140 C   0  0  0  0  0  0  0  0  0  0  0  0
   11.5863    9.6815   19.4539 C   0  0  0  0  0  0  0  0  0  0  0  0
   12.9648    4.1543   20.9205 C   0  0  0  0  0  0  0  0  0  0  0  0
    8.2089    3.6265   20.8929 C   0  0  0  0  0  0  0  0  0  0  0  0
    7.3827    2.5724   20.5432 C   0  0  0  0  0  0  0  0  0  0  0  0
   11.1529    7.2750   20.8025 C   0  0  0  0  0  0  0  0  0  0  0  0
   10.2573    8.3215   20.9827 C   0  0  0  0  0  0  0  0  0  0  0  0
   11.1606    5.9378   21.2366 N   0  0  0  0  0  0  0  0  0  0  0  0
    9.8932   11.6736   19.0677 O   0  0  0  0  0  0  0  0  0  0  0  0
    6.4470    4.5850   22.2321 C   0  0  0  0  0  0  0  0  0  0  0  0
    8.4619    6.9895   22.2968 C   0  0  0  0  0  0  0  0  0  0  0  0
   12.2747    7.5102   20.0420 C   0  0  0  0  0  0  0  0  0  0  0  0
   14.2544    6.2142   19.4191 C   0  0  0  0  0  0  0  0  0  0  0  0
   13.0695    6.3705   20.0375 N   0  0  0  0  0  0  0  0  0  0  0  0
    9.1913    8.0876   21.8361 N   0  0  0  0  0  0  0  0  0  0  0  0
   10.4739    9.4813   20.2889 C   0  0  0  0  0  0  0  0  0  0  0  0
    7.5551    7.1270   23.1200 O   0  0  0  0  0  0  0  0  0  0  0  0
  1 11  4  0
  1 21  4  0
  2  4  1  0
  2  8  1  0
  2 11  1  0
  3 10  4  0
  3 14  4  0
  4  5  1  0
  4 18  2  0
  6 12  1  0
  6 17  4  0
  6 23  4  0
  7  9  1  0
  7 13  4  0
  7 19  4  0
  9 20  1  0
 10 19  4  0
 11 25  4  0
 13 14  4  0
 15 16  4  0
 15 17  4  0
 15 21  4  0
 16 24  1  0
 16 25  4  0
 20 24  1  0
 20 26  2  0
 21 23  4  0
 22 23  1  0
M  END
$$$$

 Created by Python create_sdf_string function

 26 28  0  0  0  0  0  0  0  0999 V2000
   12.4616    8.6700   19.4180 N   0  0  0  0  0  0  0  0  0  0  0  0
   11.8329   10.8148   18.6769 N   0  0  0  0  0  0  0  0  0  0  0  0
    6.1021    2.5564   21.0678 C   0  0  0  0  0  0  0  0  0  0  0  0
   10.9097   11.8051   18.4804 C   0  0  0  0  0  0  0  0  0  0  0  0
   11.2280   12.9135   17.5669 C   0  0  0  0  0  0  0  0  0  0  0  0
   12.3782    5.4231   20.7777 C   0  0  0  0  0  0  0  0  0  0  0  0
    7.7365    4.6508   21.6987 C   0  0  0  0  0  0  0  0  0  0  0  0
   13.0186   11.0102   18.0020 C   0  0  0  0  0  0  0  0  0  0  0  0
    8.6628    5.7088   21.8871 N   0  0  0  0  0  0  0  0  0  0  0  0
    5.6516    3.5258   21.9140 C   0  0  0  0  0  0  0  0  0  0  0  0
   11.5863    9.6815   19.4539 C   0  0  0  0  0  0  0  0  0  0  0  0
   12.9648    4.1543   20.9205 C   0  0  0  0  0  0  0  0  0  0  0  0
    8.2089    3.6265   20.8929 C   0  0  0  0  0  0  0  0  0  0  0  0
    7.3827    2.5724   20.5432 C   0  0  0  0  0  0  0  0  0  0  0  0
   11.1529    7.2750   20.8025 C   0  0  0  0  0  0  0  0  0  0  0  0
   10.2573    8.3215   20.9827 C   0  0  0  0  0  0  0  0  0  0  0  0
   11.1606    5.9378   21.2366 N   0  0  0  0  0  0  0  0  0  0  0  0
    9.8932   11.6736   19.0677 O   0  0  0  0  0  0  0  0  0  0  0  0
    6.4470    4.5850   22.2321 C   0  0  0  0  0  0  0  0  0  0  0  0
    8.4619    6.9895   22.2968 C   0  0  0  0  0  0  0  0  0  0  0  0
   12.2747    7.5102   20.0420 C   0  0  0  0  0  0  0  0  0  0  0  0
   14.2544    6.2142   19.4191 C   0  0  0  0  0  0  0  0  0  0  0  0
   13.0695    6.3705   20.0375 N   0  0  0  0  0  0  0  0  0  0  0  0
    9.1913    8.0876   21.8361 N   0  0  0  0  0  0  0  0  0  0  0  0
   10.4739    9.4813   20.2889 C   0  0  0  0  0  0  0  0  0  0  0  0
    7.5551    7.1270   23.1200 O   0  0  0  0  0  0  0  0  0  0  0  0
  1 11  4  0
  1 21  4  0
  2  4  1  0
  2  8  1  0
  2 11  1  0
  3 10  4  0
  3 14  4  0
  4  5  1  0
  4 18  2  0
  6 12  1  0
  6 17  4  0
  6 23  4  0
  7  9  1  0
  7 13  4  0
  7 19  4  0
  9 20  1  0
 10 19  4  0
 11 25  4  0
 13 14  4  0
 15 16  4  0
 15 17  4  0
 15 21  4  0
 16 24  1  0
 16 25  4  0
 20 24  1  0
 20 26  2  0
 21 23  4  0
 22 23  1  0
M  END
$$$$

 Created by Python create_sdf_string function

 26 28  0  0  0  0  0  0  0  0999 V2000
   12.4616    8.6700   19.4180 N   0  0  0  0  0  0  0  0  0  0  0  0
   11.8329   10.8148   18.6769 N   0  0  0  0  0  0  0  0  0  0  0  0
    6.1021    2.5564   21.0678 C   0  0  0  0  0  0  0  0  0  0  0  0
   10.9097   11.8051   18.4804 C   0  0  0  0  0  0  0  0  0  0  0  0
   11.2280   12.9135   17.5669 C   0  0  0  0  0  0  0  0  0  0  0  0
   12.3782    5.4231   20.7777 C   0  0  0  0  0  0  0  0  0  0  0  0
    7.7365    4.6508   21.6987 C   0  0  0  0  0  0  0  0  0  0  0  0
   13.0186   11.0102   18.0020 C   0  0  0  0  0  0  0  0  0  0  0  0
    8.6628    5.7088   21.8871 N   0  0  0  0  0  0  0  0  0  0  0  0
    5.6516    3.5258   21.9140 C   0  0  0  0  0  0  0  0  0  0  0  0
   11.5863    9.6815   19.4539 C   0  0  0  0  0  0  0  0  0  0  0  0
   12.9648    4.1543   20.9205 C   0  0  0  0  0  0  0  0  0  0  0  0
    8.2089    3.6265   20.8929 C   0  0  0  0  0  0  0  0  0  0  0  0
    7.3827    2.5724   20.5432 C   0  0  0  0  0  0  0  0  0  0  0  0
   11.1529    7.2750   20.8025 C   0  0  0  0  0  0  0  0  0  0  0  0
   10.2573    8.3215   20.9827 C   0  0  0  0  0  0  0  0  0  0  0  0
   11.1606    5.9378   21.2366 N   0  0  0  0  0  0  0  0  0  0  0  0
    9.8932   11.6736   19.0677 O   0  0  0  0  0  0  0  0  0  0  0  0
    6.4470    4.5850   22.2321 C   0  0  0  0  0  0  0  0  0  0  0  0
    8.4619    6.9895   22.2968 C   0  0  0  0  0  0  0  0  0  0  0  0
   12.2747    7.5102   20.0420 C   0  0  0  0  0  0  0  0  0  0  0  0
   14.2544    6.2142   19.4191 C   0  0  0  0  0  0  0  0  0  0  0  0
   13.0695    6.3705   20.0375 N   0  0  0  0  0  0  0  0  0  0  0  0
    9.1913    8.0876   21.8361 N   0  0  0  0  0  0  0  0  0  0  0  0
   10.4739    9.4813   20.2889 C   0  0  0  0  0  0  0  0  0  0  0  0
    7.5551    7.1270   23.1200 O   0  0  0  0  0  0  0  0  0  0  0  0
  1 11  4  0
  1 21  4  0
  2  4  1  0
  2  8  1  0
  2 11  1  0
  3 10  4  0
  3 14  4  0
  4  5  1  0
  4 18  2  0
  6 12  1  0
  6 17  4  0
  6 23  4  0
  7  9  1  0
  7 13  4  0
  7 19  4  0
  9 20  1  0
 10 19  4  0
 11 25  4  0
 13 14  4  0
 15 16  4  0
 15 17  4  0
 15 21  4  0
 16 24  1  0
 16 25  4  0
 20 24  1  0
 20 26  2  0
 21 23  4  0
 22 23  1  0
M  END
$$$$

 Created by Python create_sdf_string function

 26 28  0  0  0  0  0  0  0  0999 V2000
   12.4616    8.6700   19.4180 N   0  0  0  0  0  0  0  0  0  0  0  0
   11.8329   10.8148   18.6769 N   0  0  0  0  0  0  0  0  0  0  0  0
    6.1021    2.5564   21.0678 C   0  0  0  0  0  0  0  0  0  0  0  0
   10.9097   11.8051   18.4804 C   0  0  0  0  0  0  0  0  0  0  0  0
   11.2280   12.9135   17.5669 C   0  0  0  0  0  0  0  0  0  0  0  0
   12.3782    5.4231   20.7777 C   0  0  0  0  0  0  0  0  0  0  0  0
    7.7365    4.6508   21.6987 C   0  0  0  0  0  0  0  0  0  0  0  0
   13.0186   11.0102   18.0020 C   0  0  0  0  0  0  0  0  0  0  0  0
    8.6628    5.7088   21.8871 N   0  0  0  0  0  0  0  0  0  0  0  0
    5.6516    3.5258   21.9140 C   0  0  0  0  0  0  0  0  0  0  0  0
   11.5863    9.6815   19.4539 C   0  0  0  0  0  0  0  0  0  0  0  0
   12.9648    4.1543   20.9205 C   0  0  0  0  0  0  0  0  0  0  0  0
    8.2089    3.6265   20.8929 C   0  0  0  0  0  0  0  0  0  0  0  0
    7.3827    2.5724   20.5432 C   0  0  0  0  0  0  0  0  0  0  0  0
   11.1529    7.2750   20.8025 C   0  0  0  0  0  0  0  0  0  0  0  0
   10.2573    8.3215   20.9827 C   0  0  0  0  0  0  0  0  0  0  0  0
   11.1606    5.9378   21.2366 N   0  0  0  0  0  0  0  0  0  0  0  0
    9.8932   11.6736   19.0677 O   0  0  0  0  0  0  0  0  0  0  0  0
    6.4470    4.5850   22.2321 C   0  0  0  0  0  0  0  0  0  0  0  0
    8.4619    6.9895   22.2968 C   0  0  0  0  0  0  0  0  0  0  0  0
   12.2747    7.5102   20.0420 C   0  0  0  0  0  0  0  0  0  0  0  0
   14.2544    6.2142   19.4191 C   0  0  0  0  0  0  0  0  0  0  0  0
   13.0695    6.3705   20.0375 N   0  0  0  0  0  0  0  0  0  0  0  0
    9.1913    8.0876   21.8361 N   0  0  0  0  0  0  0  0  0  0  0  0
   10.4739    9.4813   20.2889 C   0  0  0  0  0  0  0  0  0  0  0  0
    7.5551    7.1270   23.1200 O   0  0  0  0  0  0  0  0  0  0  0  0
  1 11  4  0
  1 21  4  0
  2  4  1  0
  2  8  1  0
  2 11  1  0
  3 10  4  0
  3 14  4  0
  4  5  1  0
  4 18  2  0
  6 12  1  0
  6 17  4  0
  6 23  4  0
  7  9  1  0
  7 13  4  0
  7 19  4  0
  9 20  1  0
 10 19  4  0
 11 25  4  0
 13 14  4  0
 15 16  4  0
 15 17  4  0
 15 21  4  0
 16 24  1  0
 16 25  4  0
 20 24  1  0
 20 26  2  0
 21 23  4  0
 22 23  1  0
M  END
$$$$

 Created by Python create_sdf_string function

 26 28  0  0  0  0  0  0  0  0999 V2000
   12.4616    8.6700   19.4180 N   0  0  0  0  0  0  0  0  0  0  0  0
   11.8329   10.8148   18.6769 N   0  0  0  0  0  0  0  0  0  0  0  0
    6.1021    2.5564   21.0678 C   0  0  0  0  0  0  0  0  0  0  0  0
   10.9097   11.8051   18.4804 C   0  0  0  0  0  0  0  0  0  0  0  0
   11.2280   12.9135   17.5669 C   0  0  0  0  0  0  0  0  0  0  0  0
   12.3782    5.4231   20.7777 C   0  0  0  0  0  0  0  0  0  0  0  0
    7.7365    4.6508   21.6987 C   0  0  0  0  0  0  0  0  0  0  0  0
   13.0186   11.0102   18.0020 C   0  0  0  0  0  0  0  0  0  0  0  0
    8.6628    5.7088   21.8871 N   0  0  0  0  0  0  0  0  0  0  0  0
    5.6516    3.5258   21.9140 C   0  0  0  0  0  0  0  0  0  0  0  0
   11.5863    9.6815   19.4539 C   0  0  0  0  0  0  0  0  0  0  0  0
   12.9648    4.1543   20.9205 C   0  0  0  0  0  0  0  0  0  0  0  0
    8.2089    3.6265   20.8929 C   0  0  0  0  0  0  0  0  0  0  0  0
    7.3827    2.5724   20.5432 C   0  0  0  0  0  0  0  0  0  0  0  0
   11.1529    7.2750   20.8025 C   0  0  0  0  0  0  0  0  0  0  0  0
   10.2573    8.3215   20.9827 C   0  0  0  0  0  0  0  0  0  0  0  0
   11.1606    5.9378   21.2366 N   0  0  0  0  0  0  0  0  0  0  0  0
    9.8932   11.6736   19.0677 O   0  0  0  0  0  0  0  0  0  0  0  0
    6.4470    4.5850   22.2321 C   0  0  0  0  0  0  0  0  0  0  0  0
    8.4619    6.9895   22.2968 C   0  0  0  0  0  0  0  0  0  0  0  0
   12.2747    7.5102   20.0420 C   0  0  0  0  0  0  0  0  0  0  0  0
   14.2544    6.2142   19.4191 C   0  0  0  0  0  0  0  0  0  0  0  0
   13.0695    6.3705   20.0375 N   0  0  0  0  0  0  0  0  0  0  0  0
    9.1913    8.0876   21.8361 N   0  0  0  0  0  0  0  0  0  0  0  0
   10.4739    9.4813   20.2889 C   0  0  0  0  0  0  0  0  0  0  0  0
    7.5551    7.1270   23.1200 O   0  0  0  0  0  0  0  0  0  0  0  0
  1 11  4  0
  1 21  4  0
  2  4  1  0
  2  8  1  0
  2 11  1  0
  3 10  4  0
  3 14  4  0
  4  5  1  0
  4 18  2  0
  6 12  1  0
  6 17  4  0
  6 23  4  0
  7  9  1  0
  7 13  4  0
  7 19  4  0
  9 20  1  0
 10 19  4  0
 11 25  4  0
 13 14  4  0
 15 16  4  0
 15 17  4  0
 15 21  4  0
 16 24  1  0
 16 25  4  0
 20 24  1  0
 20 26  2  0
 21 23  4  0
 22 23  1  0
M  END
$$$$

 Created by Python create_sdf_string function

 26 28  0  0  0  0  0  0  0  0999 V2000
   12.4616    8.6700   19.4180 N   0  0  0  0  0  0  0  0  0  0  0  0
   11.8329   10.8148   18.6769 N   0  0  0  0  0  0  0  0  0  0  0  0
    6.1021    2.5564   21.0678 C   0  0  0  0  0  0  0  0  0  0  0  0
   10.9097   11.8051   18.4804 C   0  0  0  0  0  0  0  0  0  0  0  0
   11.2280   12.9135   17.5669 C   0  0  0  0  0  0  0  0  0  0  0  0
   12.3782    5.4231   20.7777 C   0  0  0  0  0  0  0  0  0  0  0  0
    7.7365    4.6508   21.6987 C   0  0  0  0  0  0  0  0  0  0  0  0
   13.0186   11.0102   18.0020 C   0  0  0  0  0  0  0  0  0  0  0  0
    8.6628    5.7088   21.8871 N   0  0  0  0  0  0  0  0  0  0  0  0
    5.6516    3.5258   21.9140 C   0  0  0  0  0  0  0  0  0  0  0  0
   11.5863    9.6815   19.4539 C   0  0  0  0  0  0  0  0  0  0  0  0
   12.9648    4.1543   20.9205 C   0  0  0  0  0  0  0  0  0  0  0  0
    8.2089    3.6265   20.8929 C   0  0  0  0  0  0  0  0  0  0  0  0
    7.3827    2.5724   20.5432 C   0  0  0  0  0  0  0  0  0  0  0  0
   11.1529    7.2750   20.8025 C   0  0  0  0  0  0  0  0  0  0  0  0
   10.2573    8.3215   20.9827 C   0  0  0  0  0  0  0  0  0  0  0  0
   11.1606    5.9378   21.2366 N   0  0  0  0  0  0  0  0  0  0  0  0
    9.8932   11.6736   19.0677 O   0  0  0  0  0  0  0  0  0  0  0  0
    6.4470    4.5850   22.2321 C   0  0  0  0  0  0  0  0  0  0  0  0
    8.4619    6.9895   22.2968 C   0  0  0  0  0  0  0  0  0  0  0  0
   12.2747    7.5102   20.0420 C   0  0  0  0  0  0  0  0  0  0  0  0
   14.2544    6.2142   19.4191 C   0  0  0  0  0  0  0  0  0  0  0  0
   13.0695    6.3705   20.0375 N   0  0  0  0  0  0  0  0  0  0  0  0
    9.1913    8.0876   21.8361 N   0  0  0  0  0  0  0  0  0  0  0  0
   10.4739    9.4813   20.2889 C   0  0  0  0  0  0  0  0  0  0  0  0
    7.5551    7.1270   23.1200 O   0  0  0  0  0  0  0  0  0  0  0  0
  1 11  4  0
  1 21  4  0
  2  4  1  0
  2  8  1  0
  2 11  1  0
  3 10  4  0
  3 14  4  0
  4  5  1  0
  4 18  2  0
  6 12  1  0
  6 17  4  0
  6 23  4  0
  7  9  1  0
  7 13  4  0
  7 19  4  0
  9 20  1  0
 10 19  4  0
 11 25  4  0
 13 14  4  0
 15 16  4  0
 15 17  4  0
 15 21  4  0
 16 24  1  0
 16 25  4  0
 20 24  1  0
 20 26  2  0
 21 23  4  0
 22 23  1  0
M  END
$$$$

 Created by Python create_sdf_string function

 26 28  0  0  0  0  0  0  0  0999 V2000
   12.4616    8.6700   19.4180 N   0  0  0  0  0  0  0  0  0  0  0  0
   11.8329   10.8148   18.6769 N   0  0  0  0  0  0  0  0  0  0  0  0
    6.1021    2.5564   21.0678 C   0  0  0  0  0  0  0  0  0  0  0  0
   10.9097   11.8051   18.4804 C   0  0  0  0  0  0  0  0  0  0  0  0
   11.2280   12.9135   17.5669 C   0  0  0  0  0  0  0  0  0  0  0  0
   12.3782    5.4231   20.7777 C   0  0  0  0  0  0  0  0  0  0  0  0
    7.7365    4.6508   21.6987 C   0  0  0  0  0  0  0  0  0  0  0  0
   13.0186   11.0102   18.0020 C   0  0  0  0  0  0  0  0  0  0  0  0
    8.6628    5.7088   21.8871 N   0  0  0  0  0  0  0  0  0  0  0  0
    5.6516    3.5258   21.9140 C   0  0  0  0  0  0  0  0  0  0  0  0
   11.5863    9.6815   19.4539 C   0  0  0  0  0  0  0  0  0  0  0  0
   12.9648    4.1543   20.9205 C   0  0  0  0  0  0  0  0  0  0  0  0
    8.2089    3.6265   20.8929 C   0  0  0  0  0  0  0  0  0  0  0  0
    7.3827    2.5724   20.5432 C   0  0  0  0  0  0  0  0  0  0  0  0
   11.1529    7.2750   20.8025 C   0  0  0  0  0  0  0  0  0  0  0  0
   10.2573    8.3215   20.9827 C   0  0  0  0  0  0  0  0  0  0  0  0
   11.1606    5.9378   21.2366 N   0  0  0  0  0  0  0  0  0  0  0  0
    9.8932   11.6736   19.0677 O   0  0  0  0  0  0  0  0  0  0  0  0
    6.4470    4.5850   22.2321 C   0  0  0  0  0  0  0  0  0  0  0  0
    8.4619    6.9895   22.2968 C   0  0  0  0  0  0  0  0  0  0  0  0
   12.2747    7.5102   20.0420 C   0  0  0  0  0  0  0  0  0  0  0  0
   14.2544    6.2142   19.4191 C   0  0  0  0  0  0  0  0  0  0  0  0
   13.0695    6.3705   20.0375 N   0  0  0  0  0  0  0  0  0  0  0  0
    9.1913    8.0876   21.8361 N   0  0  0  0  0  0  0  0  0  0  0  0
   10.4739    9.4813   20.2889 C   0  0  0  0  0  0  0  0  0  0  0  0
    7.5551    7.1270   23.1200 O   0  0  0  0  0  0  0  0  0  0  0  0
  1 11  4  0
  1 21  4  0
  2  4  1  0
  2  8  1  0
  2 11  1  0
  3 10  4  0
  3 14  4  0
  4  5  1  0
  4 18  2  0
  6 12  1  0
  6 17  4  0
  6 23  4  0
  7  9  1  0
  7 13  4  0
  7 19  4  0
  9 20  1  0
 10 19  4  0
 11 25  4  0
 13 14  4  0
 15 16  4  0
 15 17  4  0
 15 21  4  0
 16 24  1  0
 16 25  4  0
 20 24  1  0
 20 26  2  0
 21 23  4  0
 22 23  1  0
M  END
$$$$

 Created by Python create_sdf_string function

 26 28  0  0  0  0  0  0  0  0999 V2000
   12.4616    8.6700   19.4180 N   0  0  0  0  0  0  0  0  0  0  0  0
   11.8329   10.8148   18.6769 N   0  0  0  0  0  0  0  0  0  0  0  0
    6.1021    2.5564   21.0678 C   0  0  0  0  0  0  0  0  0  0  0  0
   10.9097   11.8051   18.4804 C   0  0  0  0  0  0  0  0  0  0  0  0
   11.2280   12.9135   17.5669 C   0  0  0  0  0  0  0  0  0  0  0  0
   12.3782    5.4231   20.7777 C   0  0  0  0  0  0  0  0  0  0  0  0
    7.7365    4.6508   21.6987 C   0  0  0  0  0  0  0  0  0  0  0  0
   13.0186   11.0102   18.0020 C   0  0  0  0  0  0  0  0  0  0  0  0
    8.6628    5.7088   21.8871 N   0  0  0  0  0  0  0  0  0  0  0  0
    5.6516    3.5258   21.9140 C   0  0  0  0  0  0  0  0  0  0  0  0
   11.5863    9.6815   19.4539 C   0  0  0  0  0  0  0  0  0  0  0  0
   12.9648    4.1543   20.9205 C   0  0  0  0  0  0  0  0  0  0  0  0
    8.2089    3.6265   20.8929 C   0  0  0  0  0  0  0  0  0  0  0  0
    7.3827    2.5724   20.5432 C   0  0  0  0  0  0  0  0  0  0  0  0
   11.1529    7.2750   20.8025 C   0  0  0  0  0  0  0  0  0  0  0  0
   10.2573    8.3215   20.9827 C   0  0  0  0  0  0  0  0  0  0  0  0
   11.1606    5.9378   21.2366 N   0  0  0  0  0  0  0  0  0  0  0  0
    9.8932   11.6736   19.0677 O   0  0  0  0  0  0  0  0  0  0  0  0
    6.4470    4.5850   22.2321 C   0  0  0  0  0  0  0  0  0  0  0  0
    8.4619    6.9895   22.2968 C   0  0  0  0  0  0  0  0  0  0  0  0
   12.2747    7.5102   20.0420 C   0  0  0  0  0  0  0  0  0  0  0  0
   14.2544    6.2142   19.4191 C   0  0  0  0  0  0  0  0  0  0  0  0
   13.0695    6.3705   20.0375 N   0  0  0  0  0  0  0  0  0  0  0  0
    9.1913    8.0876   21.8361 N   0  0  0  0  0  0  0  0  0  0  0  0
   10.4739    9.4813   20.2889 C   0  0  0  0  0  0  0  0  0  0  0  0
    7.5551    7.1270   23.1200 O   0  0  0  0  0  0  0  0  0  0  0  0
  1 11  4  0
  1 21  4  0
  2  4  1  0
  2  8  1  0
  2 11  1  0
  3 10  4  0
  3 14  4  0
  4  5  1  0
  4 18  2  0
  6 12  1  0
  6 17  4  0
  6 23  4  0
  7  9  1  0
  7 13  4  0
  7 19  4  0
  9 20  1  0
 10 19  4  0
 11 25  4  0
 13 14  4  0
 15 16  4  0
 15 17  4  0
 15 21  4  0
 16 24  1  0
 16 25  4  0
 20 24  1  0
 20 26  2  0
 21 23  4  0
 22 23  1  0
M  END
$$$$

 Created by Python create_sdf_string function

 26 28  0  0  0  0  0  0  0  0999 V2000
   12.4616    8.6700   19.4180 N   0  0  0  0  0  0  0  0  0  0  0  0
   11.8329   10.8148   18.6769 N   0  0  0  0  0  0  0  0  0  0  0  0
    6.1021    2.5564   21.0678 C   0  0  0  0  0  0  0  0  0  0  0  0
   10.9097   11.8051   18.4804 C   0  0  0  0  0  0  0  0  0  0  0  0
   11.2280   12.9135   17.5669 C   0  0  0  0  0  0  0  0  0  0  0  0
   12.3782    5.4231   20.7777 C   0  0  0  0  0  0  0  0  0  0  0  0
    7.7365    4.6508   21.6987 C   0  0  0  0  0  0  0  0  0  0  0  0
   13.0186   11.0102   18.0020 C   0  0  0  0  0  0  0  0  0  0  0  0
    8.6628    5.7088   21.8871 N   0  0  0  0  0  0  0  0  0  0  0  0
    5.6516    3.5258   21.9140 C   0  0  0  0  0  0  0  0  0  0  0  0
   11.5863    9.6815   19.4539 C   0  0  0  0  0  0  0  0  0  0  0  0
   12.9648    4.1543   20.9205 C   0  0  0  0  0  0  0  0  0  0  0  0
    8.2089    3.6265   20.8929 C   0  0  0  0  0  0  0  0  0  0  0  0
    7.3827    2.5724   20.5432 C   0  0  0  0  0  0  0  0  0  0  0  0
   11.1529    7.2750   20.8025 C   0  0  0  0  0  0  0  0  0  0  0  0
   10.2573    8.3215   20.9827 C   0  0  0  0  0  0  0  0  0  0  0  0
   11.1606    5.9378   21.2366 N   0  0  0  0  0  0  0  0  0  0  0  0
    9.8932   11.6736   19.0677 O   0  0  0  0  0  0  0  0  0  0  0  0
    6.4470    4.5850   22.2321 C   0  0  0  0  0  0  0  0  0  0  0  0
    8.4619    6.9895   22.2968 C   0  0  0  0  0  0  0  0  0  0  0  0
   12.2747    7.5102   20.0420 C   0  0  0  0  0  0  0  0  0  0  0  0
   14.2544    6.2142   19.4191 C   0  0  0  0  0  0  0  0  0  0  0  0
   13.0695    6.3705   20.0375 N   0  0  0  0  0  0  0  0  0  0  0  0
    9.1913    8.0876   21.8361 N   0  0  0  0  0  0  0  0  0  0  0  0
   10.4739    9.4813   20.2889 C   0  0  0  0  0  0  0  0  0  0  0  0
    7.5551    7.1270   23.1200 O   0  0  0  0  0  0  0  0  0  0  0  0
  1 11  4  0
  1 21  4  0
  2  4  1  0
  2  8  1  0
  2 11  1  0
  3 10  4  0
  3 14  4  0
  4  5  1  0
  4 18  2  0
  6 12  1  0
  6 17  4  0
  6 23  4  0
  7  9  1  0
  7 13  4  0
  7 19  4  0
  9 20  1  0
 10 19  4  0
 11 25  4  0
 13 14  4  0
 15 16  4  0
 15 17  4  0
 15 21  4  0
 16 24  1  0
 16 25  4  0
 20 24  1  0
 20 26  2  0
 21 23  4  0
 22 23  1  0
M  END
$$$$

 Created by Python create_sdf_string function

 26 28  0  0  0  0  0  0  0  0999 V2000
   12.4616    8.6700   19.4180 N   0  0  0  0  0  0  0  0  0  0  0  0
   11.8329   10.8148   18.6769 N   0  0  0  0  0  0  0  0  0  0  0  0
    6.1021    2.5564   21.0678 C   0  0  0  0  0  0  0  0  0  0  0  0
   10.9097   11.8051   18.4804 C   0  0  0  0  0  0  0  0  0  0  0  0
   11.2280   12.9135   17.5669 C   0  0  0  0  0  0  0  0  0  0  0  0
   12.3782    5.4231   20.7777 C   0  0  0  0  0  0  0  0  0  0  0  0
    7.7365    4.6508   21.6987 C   0  0  0  0  0  0  0  0  0  0  0  0
   13.0186   11.0102   18.0020 C   0  0  0  0  0  0  0  0  0  0  0  0
    8.6628    5.7088   21.8871 N   0  0  0  0  0  0  0  0  0  0  0  0
    5.6516    3.5258   21.9140 C   0  0  0  0  0  0  0  0  0  0  0  0
   11.5863    9.6815   19.4539 C   0  0  0  0  0  0  0  0  0  0  0  0
   12.9648    4.1543   20.9205 C   0  0  0  0  0  0  0  0  0  0  0  0
    8.2089    3.6265   20.8929 C   0  0  0  0  0  0  0  0  0  0  0  0
    7.3827    2.5724   20.5432 C   0  0  0  0  0  0  0  0  0  0  0  0
   11.1529    7.2750   20.8025 C   0  0  0  0  0  0  0  0  0  0  0  0
   10.2573    8.3215   20.9827 C   0  0  0  0  0  0  0  0  0  0  0  0
   11.1606    5.9378   21.2366 N   0  0  0  0  0  0  0  0  0  0  0  0
    9.8932   11.6736   19.0677 O   0  0  0  0  0  0  0  0  0  0  0  0
    6.4470    4.5850   22.2321 C   0  0  0  0  0  0  0  0  0  0  0  0
    8.4619    6.9895   22.2968 C   0  0  0  0  0  0  0  0  0  0  0  0
   12.2747    7.5102   20.0420 C   0  0  0  0  0  0  0  0  0  0  0  0
   14.2544    6.2142   19.4191 C   0  0  0  0  0  0  0  0  0  0  0  0
   13.0695    6.3705   20.0375 N   0  0  0  0  0  0  0  0  0  0  0  0
    9.1913    8.0876   21.8361 N   0  0  0  0  0  0  0  0  0  0  0  0
   10.4739    9.4813   20.2889 C   0  0  0  0  0  0  0  0  0  0  0  0
    7.5551    7.1270   23.1200 O   0  0  0  0  0  0  0  0  0  0  0  0
  1 11  4  0
  1 21  4  0
  2  4  1  0
  2  8  1  0
  2 11  1  0
  3 10  4  0
  3 14  4  0
  4  5  1  0
  4 18  2  0
  6 12  1  0
  6 17  4  0
  6 23  4  0
  7  9  1  0
  7 13  4  0
  7 19  4  0
  9 20  1  0
 10 19  4  0
 11 25  4  0
 13 14  4  0
 15 16  4  0
 15 17  4  0
 15 21  4  0
 16 24  1  0
 16 25  4  0
 20 24  1  0
 20 26  2  0
 21 23  4  0
 22 23  1  0
M  END
$$$$

 Created by Python create_sdf_string function

 26 28  0  0  0  0  0  0  0  0999 V2000
   12.4616    8.6700   19.4180 N   0  0  0  0  0  0  0  0  0  0  0  0
   11.8329   10.8148   18.6769 N   0  0  0  0  0  0  0  0  0  0  0  0
    6.1021    2.5564   21.0678 C   0  0  0  0  0  0  0  0  0  0  0  0
   10.9097   11.8051   18.4804 C   0  0  0  0  0  0  0  0  0  0  0  0
   11.2280   12.9135   17.5669 C   0  0  0  0  0  0  0  0  0  0  0  0
   12.3782    5.4231   20.7777 C   0  0  0  0  0  0  0  0  0  0  0  0
    7.7365    4.6508   21.6987 C   0  0  0  0  0  0  0  0  0  0  0  0
   13.0186   11.0102   18.0020 C   0  0  0  0  0  0  0  0  0  0  0  0
    8.6628    5.7088   21.8871 N   0  0  0  0  0  0  0  0  0  0  0  0
    5.6516    3.5258   21.9140 C   0  0  0  0  0  0  0  0  0  0  0  0
   11.5863    9.6815   19.4539 C   0  0  0  0  0  0  0  0  0  0  0  0
   12.9648    4.1543   20.9205 C   0  0  0  0  0  0  0  0  0  0  0  0
    8.2089    3.6265   20.8929 C   0  0  0  0  0  0  0  0  0  0  0  0
    7.3827    2.5724   20.5432 C   0  0  0  0  0  0  0  0  0  0  0  0
   11.1529    7.2750   20.8025 C   0  0  0  0  0  0  0  0  0  0  0  0
   10.2573    8.3215   20.9827 C   0  0  0  0  0  0  0  0  0  0  0  0
   11.1606    5.9378   21.2366 N   0  0  0  0  0  0  0  0  0  0  0  0
    9.8932   11.6736   19.0677 O   0  0  0  0  0  0  0  0  0  0  0  0
    6.4470    4.5850   22.2321 C   0  0  0  0  0  0  0  0  0  0  0  0
    8.4619    6.9895   22.2968 C   0  0  0  0  0  0  0  0  0  0  0  0
   12.2747    7.5102   20.0420 C   0  0  0  0  0  0  0  0  0  0  0  0
   14.2544    6.2142   19.4191 C   0  0  0  0  0  0  0  0  0  0  0  0
   13.0695    6.3705   20.0375 N   0  0  0  0  0  0  0  0  0  0  0  0
    9.1913    8.0876   21.8361 N   0  0  0  0  0  0  0  0  0  0  0  0
   10.4739    9.4813   20.2889 C   0  0  0  0  0  0  0  0  0  0  0  0
    7.5551    7.1270   23.1200 O   0  0  0  0  0  0  0  0  0  0  0  0
  1 11  4  0
  1 21  4  0
  2  4  1  0
  2  8  1  0
  2 11  1  0
  3 10  4  0
  3 14  4  0
  4  5  1  0
  4 18  2  0
  6 12  1  0
  6 17  4  0
  6 23  4  0
  7  9  1  0
  7 13  4  0
  7 19  4  0
  9 20  1  0
 10 19  4  0
 11 25  4  0
 13 14  4  0
 15 16  4  0
 15 17  4  0
 15 21  4  0
 16 24  1  0
 16 25  4  0
 20 24  1  0
 20 26  2  0
 21 23  4  0
 22 23  1  0
M  END
$$$$

 Created by Python create_sdf_string function

 26 28  0  0  0  0  0  0  0  0999 V2000
   12.4616    8.6700   19.4180 N   0  0  0  0  0  0  0  0  0  0  0  0
   11.8329   10.8148   18.6769 N   0  0  0  0  0  0  0  0  0  0  0  0
    6.1021    2.5564   21.0678 C   0  0  0  0  0  0  0  0  0  0  0  0
   10.9097   11.8051   18.4804 C   0  0  0  0  0  0  0  0  0  0  0  0
   11.2280   12.9135   17.5669 C   0  0  0  0  0  0  0  0  0  0  0  0
   12.3782    5.4231   20.7777 C   0  0  0  0  0  0  0  0  0  0  0  0
    7.7365    4.6508   21.6987 C   0  0  0  0  0  0  0  0  0  0  0  0
   13.0186   11.0102   18.0020 C   0  0  0  0  0  0  0  0  0  0  0  0
    8.6628    5.7088   21.8871 N   0  0  0  0  0  0  0  0  0  0  0  0
    5.6516    3.5258   21.9140 C   0  0  0  0  0  0  0  0  0  0  0  0
   11.5863    9.6815   19.4539 C   0  0  0  0  0  0  0  0  0  0  0  0
   12.9648    4.1543   20.9205 C   0  0  0  0  0  0  0  0  0  0  0  0
    8.2089    3.6265   20.8929 C   0  0  0  0  0  0  0  0  0  0  0  0
    7.3827    2.5724   20.5432 C   0  0  0  0  0  0  0  0  0  0  0  0
   11.1529    7.2750   20.8025 C   0  0  0  0  0  0  0  0  0  0  0  0
   10.2573    8.3215   20.9827 C   0  0  0  0  0  0  0  0  0  0  0  0
   11.1606    5.9378   21.2366 N   0  0  0  0  0  0  0  0  0  0  0  0
    9.8932   11.6736   19.0677 O   0  0  0  0  0  0  0  0  0  0  0  0
    6.4470    4.5850   22.2321 C   0  0  0  0  0  0  0  0  0  0  0  0
    8.4619    6.9895   22.2968 C   0  0  0  0  0  0  0  0  0  0  0  0
   12.2747    7.5102   20.0420 C   0  0  0  0  0  0  0  0  0  0  0  0
   14.2544    6.2142   19.4191 C   0  0  0  0  0  0  0  0  0  0  0  0
   13.0695    6.3705   20.0375 N   0  0  0  0  0  0  0  0  0  0  0  0
    9.1913    8.0876   21.8361 N   0  0  0  0  0  0  0  0  0  0  0  0
   10.4739    9.4813   20.2889 C   0  0  0  0  0  0  0  0  0  0  0  0
    7.5551    7.1270   23.1200 O   0  0  0  0  0  0  0  0  0  0  0  0
  1 11  4  0
  1 21  4  0
  2  4  1  0
  2  8  1  0
  2 11  1  0
  3 10  4  0
  3 14  4  0
  4  5  1  0
  4 18  2  0
  6 12  1  0
  6 17  4  0
  6 23  4  0
  7  9  1  0
  7 13  4  0
  7 19  4  0
  9 20  1  0
 10 19  4  0
 11 25  4  0
 13 14  4  0
 15 16  4  0
 15 17  4  0
 15 21  4  0
 16 24  1  0
 16 25  4  0
 20 24  1  0
 20 26  2  0
 21 23  4  0
 22 23  1  0
M  END
$$$$

 Created by Python create_sdf_string function

 26 28  0  0  0  0  0  0  0  0999 V2000
   12.4616    8.6700   19.4180 N   0  0  0  0  0  0  0  0  0  0  0  0
   11.8329   10.8148   18.6769 N   0  0  0  0  0  0  0  0  0  0  0  0
    6.1021    2.5564   21.0678 C   0  0  0  0  0  0  0  0  0  0  0  0
   10.9097   11.8051   18.4804 C   0  0  0  0  0  0  0  0  0  0  0  0
   11.2280   12.9135   17.5669 C   0  0  0  0  0  0  0  0  0  0  0  0
   12.3782    5.4231   20.7777 C   0  0  0  0  0  0  0  0  0  0  0  0
    7.7365    4.6508   21.6987 C   0  0  0  0  0  0  0  0  0  0  0  0
   13.0186   11.0102   18.0020 C   0  0  0  0  0  0  0  0  0  0  0  0
    8.6628    5.7088   21.8871 N   0  0  0  0  0  0  0  0  0  0  0  0
    5.6516    3.5258   21.9140 C   0  0  0  0  0  0  0  0  0  0  0  0
   11.5863    9.6815   19.4539 C   0  0  0  0  0  0  0  0  0  0  0  0
   12.9648    4.1543   20.9205 C   0  0  0  0  0  0  0  0  0  0  0  0
    8.2089    3.6265   20.8929 C   0  0  0  0  0  0  0  0  0  0  0  0
    7.3827    2.5724   20.5432 C   0  0  0  0  0  0  0  0  0  0  0  0
   11.1529    7.2750   20.8025 C   0  0  0  0  0  0  0  0  0  0  0  0
   10.2573    8.3215   20.9827 C   0  0  0  0  0  0  0  0  0  0  0  0
   11.1606    5.9378   21.2366 N   0  0  0  0  0  0  0  0  0  0  0  0
    9.8932   11.6736   19.0677 O   0  0  0  0  0  0  0  0  0  0  0  0
    6.4470    4.5850   22.2321 C   0  0  0  0  0  0  0  0  0  0  0  0
    8.4619    6.9895   22.2968 C   0  0  0  0  0  0  0  0  0  0  0  0
   12.2747    7.5102   20.0420 C   0  0  0  0  0  0  0  0  0  0  0  0
   14.2544    6.2142   19.4191 C   0  0  0  0  0  0  0  0  0  0  0  0
   13.0695    6.3705   20.0375 N   0  0  0  0  0  0  0  0  0  0  0  0
    9.1913    8.0876   21.8361 N   0  0  0  0  0  0  0  0  0  0  0  0
   10.4739    9.4813   20.2889 C   0  0  0  0  0  0  0  0  0  0  0  0
    7.5551    7.1270   23.1200 O   0  0  0  0  0  0  0  0  0  0  0  0
  1 11  4  0
  1 21  4  0
  2  4  1  0
  2  8  1  0
  2 11  1  0
  3 10  4  0
  3 14  4  0
  4  5  1  0
  4 18  2  0
  6 12  1  0
  6 17  4  0
  6 23  4  0
  7  9  1  0
  7 13  4  0
  7 19  4  0
  9 20  1  0
 10 19  4  0
 11 25  4  0
 13 14  4  0
 15 16  4  0
 15 17  4  0
 15 21  4  0
 16 24  1  0
 16 25  4  0
 20 24  1  0
 20 26  2  0
 21 23  4  0
 22 23  1  0
M  END
$$$$

 Created by Python create_sdf_string function

 26 28  0  0  0  0  0  0  0  0999 V2000
   12.4616    8.6700   19.4180 N   0  0  0  0  0  0  0  0  0  0  0  0
   11.8329   10.8148   18.6769 N   0  0  0  0  0  0  0  0  0  0  0  0
    6.1021    2.5564   21.0678 C   0  0  0  0  0  0  0  0  0  0  0  0
   10.9097   11.8051   18.4804 C   0  0  0  0  0  0  0  0  0  0  0  0
   11.2280   12.9135   17.5669 C   0  0  0  0  0  0  0  0  0  0  0  0
   12.3782    5.4231   20.7777 C   0  0  0  0  0  0  0  0  0  0  0  0
    7.7365    4.6508   21.6987 C   0  0  0  0  0  0  0  0  0  0  0  0
   13.0186   11.0102   18.0020 C   0  0  0  0  0  0  0  0  0  0  0  0
    8.6628    5.7088   21.8871 N   0  0  0  0  0  0  0  0  0  0  0  0
    5.6516    3.5258   21.9140 C   0  0  0  0  0  0  0  0  0  0  0  0
   11.5863    9.6815   19.4539 C   0  0  0  0  0  0  0  0  0  0  0  0
   12.9648    4.1543   20.9205 C   0  0  0  0  0  0  0  0  0  0  0  0
    8.2089    3.6265   20.8929 C   0  0  0  0  0  0  0  0  0  0  0  0
    7.3827    2.5724   20.5432 C   0  0  0  0  0  0  0  0  0  0  0  0
   11.1529    7.2750   20.8025 C   0  0  0  0  0  0  0  0  0  0  0  0
   10.2573    8.3215   20.9827 C   0  0  0  0  0  0  0  0  0  0  0  0
   11.1606    5.9378   21.2366 N   0  0  0  0  0  0  0  0  0  0  0  0
    9.8932   11.6736   19.0677 O   0  0  0  0  0  0  0  0  0  0  0  0
    6.4470    4.5850   22.2321 C   0  0  0  0  0  0  0  0  0  0  0  0
    8.4619    6.9895   22.2968 C   0  0  0  0  0  0  0  0  0  0  0  0
   12.2747    7.5102   20.0420 C   0  0  0  0  0  0  0  0  0  0  0  0
   14.2544    6.2142   19.4191 C   0  0  0  0  0  0  0  0  0  0  0  0
   13.0695    6.3705   20.0375 N   0  0  0  0  0  0  0  0  0  0  0  0
    9.1913    8.0876   21.8361 N   0  0  0  0  0  0  0  0  0  0  0  0
   10.4739    9.4813   20.2889 C   0  0  0  0  0  0  0  0  0  0  0  0
    7.5551    7.1270   23.1200 O   0  0  0  0  0  0  0  0  0  0  0  0
  1 11  4  0
  1 21  4  0
  2  4  1  0
  2  8  1  0
  2 11  1  0
  3 10  4  0
  3 14  4  0
  4  5  1  0
  4 18  2  0
  6 12  1  0
  6 17  4  0
  6 23  4  0
  7  9  1  0
  7 13  4  0
  7 19  4  0
  9 20  1  0
 10 19  4  0
 11 25  4  0
 13 14  4  0
 15 16  4  0
 15 17  4  0
 15 21  4  0
 16 24  1  0
 16 25  4  0
 20 24  1  0
 20 26  2  0
 21 23  4  0
 22 23  1  0
M  END
$$$$

 Created by Python create_sdf_string function

 26 28  0  0  0  0  0  0  0  0999 V2000
   12.4616    8.6700   19.4180 N   0  0  0  0  0  0  0  0  0  0  0  0
   11.8329   10.8148   18.6769 N   0  0  0  0  0  0  0  0  0  0  0  0
    6.1021    2.5564   21.0678 C   0  0  0  0  0  0  0  0  0  0  0  0
   10.9097   11.8051   18.4804 C   0  0  0  0  0  0  0  0  0  0  0  0
   11.2280   12.9135   17.5669 C   0  0  0  0  0  0  0  0  0  0  0  0
   12.3782    5.4231   20.7777 C   0  0  0  0  0  0  0  0  0  0  0  0
    7.7365    4.6508   21.6987 C   0  0  0  0  0  0  0  0  0  0  0  0
   13.0186   11.0102   18.0020 C   0  0  0  0  0  0  0  0  0  0  0  0
    8.6628    5.7088   21.8871 N   0  0  0  0  0  0  0  0  0  0  0  0
    5.6516    3.5258   21.9140 C   0  0  0  0  0  0  0  0  0  0  0  0
   11.5863    9.6815   19.4539 C   0  0  0  0  0  0  0  0  0  0  0  0
   12.9648    4.1543   20.9205 C   0  0  0  0  0  0  0  0  0  0  0  0
    8.2089    3.6265   20.8929 C   0  0  0  0  0  0  0  0  0  0  0  0
    7.3827    2.5724   20.5432 C   0  0  0  0  0  0  0  0  0  0  0  0
   11.1529    7.2750   20.8025 C   0  0  0  0  0  0  0  0  0  0  0  0
   10.2573    8.3215   20.9827 C   0  0  0  0  0  0  0  0  0  0  0  0
   11.1606    5.9378   21.2366 N   0  0  0  0  0  0  0  0  0  0  0  0
    9.8932   11.6736   19.0677 O   0  0  0  0  0  0  0  0  0  0  0  0
    6.4470    4.5850   22.2321 C   0  0  0  0  0  0  0  0  0  0  0  0
    8.4619    6.9895   22.2968 C   0  0  0  0  0  0  0  0  0  0  0  0
   12.2747    7.5102   20.0420 C   0  0  0  0  0  0  0  0  0  0  0  0
   14.2544    6.2142   19.4191 C   0  0  0  0  0  0  0  0  0  0  0  0
   13.0695    6.3705   20.0375 N   0  0  0  0  0  0  0  0  0  0  0  0
    9.1913    8.0876   21.8361 N   0  0  0  0  0  0  0  0  0  0  0  0
   10.4739    9.4813   20.2889 C   0  0  0  0  0  0  0  0  0  0  0  0
    7.5551    7.1270   23.1200 O   0  0  0  0  0  0  0  0  0  0  0  0
  1 11  4  0
  1 21  4  0
  2  4  1  0
  2  8  1  0
  2 11  1  0
  3 10  4  0
  3 14  4  0
  4  5  1  0
  4 18  2  0
  6 12  1  0
  6 17  4  0
  6 23  4  0
  7  9  1  0
  7 13  4  0
  7 19  4  0
  9 20  1  0
 10 19  4  0
 11 25  4  0
 13 14  4  0
 15 16  4  0
 15 17  4  0
 15 21  4  0
 16 24  1  0
 16 25  4  0
 20 24  1  0
 20 26  2  0
 21 23  4  0
 22 23  1  0
M  END
$$$$

 Created by Python create_sdf_string function

 26 28  0  0  0  0  0  0  0  0999 V2000
   12.4616    8.6700   19.4180 N   0  0  0  0  0  0  0  0  0  0  0  0
   11.8329   10.8148   18.6769 N   0  0  0  0  0  0  0  0  0  0  0  0
    6.1021    2.5564   21.0678 C   0  0  0  0  0  0  0  0  0  0  0  0
   10.9097   11.8051   18.4804 C   0  0  0  0  0  0  0  0  0  0  0  0
   11.2280   12.9135   17.5669 C   0  0  0  0  0  0  0  0  0  0  0  0
   12.3782    5.4231   20.7777 C   0  0  0  0  0  0  0  0  0  0  0  0
    7.7365    4.6508   21.6987 C   0  0  0  0  0  0  0  0  0  0  0  0
   13.0186   11.0102   18.0020 C   0  0  0  0  0  0  0  0  0  0  0  0
    8.6628    5.7088   21.8871 N   0  0  0  0  0  0  0  0  0  0  0  0
    5.6516    3.5258   21.9140 C   0  0  0  0  0  0  0  0  0  0  0  0
   11.5863    9.6815   19.4539 C   0  0  0  0  0  0  0  0  0  0  0  0
   12.9648    4.1543   20.9205 C   0  0  0  0  0  0  0  0  0  0  0  0
    8.2089    3.6265   20.8929 C   0  0  0  0  0  0  0  0  0  0  0  0
    7.3827    2.5724   20.5432 C   0  0  0  0  0  0  0  0  0  0  0  0
   11.1529    7.2750   20.8025 C   0  0  0  0  0  0  0  0  0  0  0  0
   10.2573    8.3215   20.9827 C   0  0  0  0  0  0  0  0  0  0  0  0
   11.1606    5.9378   21.2366 N   0  0  0  0  0  0  0  0  0  0  0  0
    9.8932   11.6736   19.0677 O   0  0  0  0  0  0  0  0  0  0  0  0
    6.4470    4.5850   22.2321 C   0  0  0  0  0  0  0  0  0  0  0  0
    8.4619    6.9895   22.2968 C   0  0  0  0  0  0  0  0  0  0  0  0
   12.2747    7.5102   20.0420 C   0  0  0  0  0  0  0  0  0  0  0  0
   14.2544    6.2142   19.4191 C   0  0  0  0  0  0  0  0  0  0  0  0
   13.0695    6.3705   20.0375 N   0  0  0  0  0  0  0  0  0  0  0  0
    9.1913    8.0876   21.8361 N   0  0  0  0  0  0  0  0  0  0  0  0
   10.4739    9.4813   20.2889 C   0  0  0  0  0  0  0  0  0  0  0  0
    7.5551    7.1270   23.1200 O   0  0  0  0  0  0  0  0  0  0  0  0
  1 11  4  0
  1 21  4  0
  2  4  1  0
  2  8  1  0
  2 11  1  0
  3 10  4  0
  3 14  4  0
  4  5  1  0
  4 18  2  0
  6 12  1  0
  6 17  4  0
  6 23  4  0
  7  9  1  0
  7 13  4  0
  7 19  4  0
  9 20  1  0
 10 19  4  0
 11 25  4  0
 13 14  4  0
 15 16  4  0
 15 17  4  0
 15 21  4  0
 16 24  1  0
 16 25  4  0
 20 24  1  0
 20 26  2  0
 21 23  4  0
 22 23  1  0
M  END
$$$$

 Created by Python create_sdf_string function

 26 28  0  0  0  0  0  0  0  0999 V2000
   12.4616    8.6700   19.4180 N   0  0  0  0  0  0  0  0  0  0  0  0
   11.8329   10.8148   18.6769 N   0  0  0  0  0  0  0  0  0  0  0  0
    6.1021    2.5564   21.0678 C   0  0  0  0  0  0  0  0  0  0  0  0
   10.9097   11.8051   18.4804 C   0  0  0  0  0  0  0  0  0  0  0  0
   11.2280   12.9135   17.5669 C   0  0  0  0  0  0  0  0  0  0  0  0
   12.3782    5.4231   20.7777 C   0  0  0  0  0  0  0  0  0  0  0  0
    7.7365    4.6508   21.6987 C   0  0  0  0  0  0  0  0  0  0  0  0
   13.0186   11.0102   18.0020 C   0  0  0  0  0  0  0  0  0  0  0  0
    8.6628    5.7088   21.8871 N   0  0  0  0  0  0  0  0  0  0  0  0
    5.6516    3.5258   21.9140 C   0  0  0  0  0  0  0  0  0  0  0  0
   11.5863    9.6815   19.4539 C   0  0  0  0  0  0  0  0  0  0  0  0
   12.9648    4.1543   20.9205 C   0  0  0  0  0  0  0  0  0  0  0  0
    8.2089    3.6265   20.8929 C   0  0  0  0  0  0  0  0  0  0  0  0
    7.3827    2.5724   20.5432 C   0  0  0  0  0  0  0  0  0  0  0  0
   11.1529    7.2750   20.8025 C   0  0  0  0  0  0  0  0  0  0  0  0
   10.2573    8.3215   20.9827 C   0  0  0  0  0  0  0  0  0  0  0  0
   11.1606    5.9378   21.2366 N   0  0  0  0  0  0  0  0  0  0  0  0
    9.8932   11.6736   19.0677 O   0  0  0  0  0  0  0  0  0  0  0  0
    6.4470    4.5850   22.2321 C   0  0  0  0  0  0  0  0  0  0  0  0
    8.4619    6.9895   22.2968 C   0  0  0  0  0  0  0  0  0  0  0  0
   12.2747    7.5102   20.0420 C   0  0  0  0  0  0  0  0  0  0  0  0
   14.2544    6.2142   19.4191 C   0  0  0  0  0  0  0  0  0  0  0  0
   13.0695    6.3705   20.0375 N   0  0  0  0  0  0  0  0  0  0  0  0
    9.1913    8.0876   21.8361 N   0  0  0  0  0  0  0  0  0  0  0  0
   10.4739    9.4813   20.2889 C   0  0  0  0  0  0  0  0  0  0  0  0
    7.5551    7.1270   23.1200 O   0  0  0  0  0  0  0  0  0  0  0  0
  1 11  4  0
  1 21  4  0
  2  4  1  0
  2  8  1  0
  2 11  1  0
  3 10  4  0
  3 14  4  0
  4  5  1  0
  4 18  2  0
  6 12  1  0
  6 17  4  0
  6 23  4  0
  7  9  1  0
  7 13  4  0
  7 19  4  0
  9 20  1  0
 10 19  4  0
 11 25  4  0
 13 14  4  0
 15 16  4  0
 15 17  4  0
 15 21  4  0
 16 24  1  0
 16 25  4  0
 20 24  1  0
 20 26  2  0
 21 23  4  0
 22 23  1  0
M  END
$$$$

 Created by Python create_sdf_string function

 26 28  0  0  0  0  0  0  0  0999 V2000
   12.4616    8.6700   19.4180 N   0  0  0  0  0  0  0  0  0  0  0  0
   11.8329   10.8148   18.6769 N   0  0  0  0  0  0  0  0  0  0  0  0
    6.1021    2.5564   21.0678 C   0  0  0  0  0  0  0  0  0  0  0  0
   10.9097   11.8051   18.4804 C   0  0  0  0  0  0  0  0  0  0  0  0
   11.2280   12.9135   17.5669 C   0  0  0  0  0  0  0  0  0  0  0  0
   12.3782    5.4231   20.7777 C   0  0  0  0  0  0  0  0  0  0  0  0
    7.7365    4.6508   21.6987 C   0  0  0  0  0  0  0  0  0  0  0  0
   13.0186   11.0102   18.0020 C   0  0  0  0  0  0  0  0  0  0  0  0
    8.6628    5.7088   21.8871 N   0  0  0  0  0  0  0  0  0  0  0  0
    5.6516    3.5258   21.9140 C   0  0  0  0  0  0  0  0  0  0  0  0
   11.5863    9.6815   19.4539 C   0  0  0  0  0  0  0  0  0  0  0  0
   12.9648    4.1543   20.9205 C   0  0  0  0  0  0  0  0  0  0  0  0
    8.2089    3.6265   20.8929 C   0  0  0  0  0  0  0  0  0  0  0  0
    7.3827    2.5724   20.5432 C   0  0  0  0  0  0  0  0  0  0  0  0
   11.1529    7.2750   20.8025 C   0  0  0  0  0  0  0  0  0  0  0  0
   10.2573    8.3215   20.9827 C   0  0  0  0  0  0  0  0  0  0  0  0
   11.1606    5.9378   21.2366 N   0  0  0  0  0  0  0  0  0  0  0  0
    9.8932   11.6736   19.0677 O   0  0  0  0  0  0  0  0  0  0  0  0
    6.4470    4.5850   22.2321 C   0  0  0  0  0  0  0  0  0  0  0  0
    8.4619    6.9895   22.2968 C   0  0  0  0  0  0  0  0  0  0  0  0
   12.2747    7.5102   20.0420 C   0  0  0  0  0  0  0  0  0  0  0  0
   14.2544    6.2142   19.4191 C   0  0  0  0  0  0  0  0  0  0  0  0
   13.0695    6.3705   20.0375 N   0  0  0  0  0  0  0  0  0  0  0  0
    9.1913    8.0876   21.8361 N   0  0  0  0  0  0  0  0  0  0  0  0
   10.4739    9.4813   20.2889 C   0  0  0  0  0  0  0  0  0  0  0  0
    7.5551    7.1270   23.1200 O   0  0  0  0  0  0  0  0  0  0  0  0
  1 11  4  0
  1 21  4  0
  2  4  1  0
  2  8  1  0
  2 11  1  0
  3 10  4  0
  3 14  4  0
  4  5  1  0
  4 18  2  0
  6 12  1  0
  6 17  4  0
  6 23  4  0
  7  9  1  0
  7 13  4  0
  7 19  4  0
  9 20  1  0
 10 19  4  0
 11 25  4  0
 13 14  4  0
 15 16  4  0
 15 17  4  0
 15 21  4  0
 16 24  1  0
 16 25  4  0
 20 24  1  0
 20 26  2  0
 21 23  4  0
 22 23  1  0
M  END
$$$$

 Created by Python create_sdf_string function

 26 28  0  0  0  0  0  0  0  0999 V2000
   12.4616    8.6700   19.4180 N   0  0  0  0  0  0  0  0  0  0  0  0
   11.8329   10.8148   18.6769 N   0  0  0  0  0  0  0  0  0  0  0  0
    6.1021    2.5564   21.0678 C   0  0  0  0  0  0  0  0  0  0  0  0
   10.9097   11.8051   18.4804 C   0  0  0  0  0  0  0  0  0  0  0  0
   11.2280   12.9135   17.5669 C   0  0  0  0  0  0  0  0  0  0  0  0
   12.3782    5.4231   20.7777 C   0  0  0  0  0  0  0  0  0  0  0  0
    7.7365    4.6508   21.6987 C   0  0  0  0  0  0  0  0  0  0  0  0
   13.0186   11.0102   18.0020 C   0  0  0  0  0  0  0  0  0  0  0  0
    8.6628    5.7088   21.8871 N   0  0  0  0  0  0  0  0  0  0  0  0
    5.6516    3.5258   21.9140 C   0  0  0  0  0  0  0  0  0  0  0  0
   11.5863    9.6815   19.4539 C   0  0  0  0  0  0  0  0  0  0  0  0
   12.9648    4.1543   20.9205 C   0  0  0  0  0  0  0  0  0  0  0  0
    8.2089    3.6265   20.8929 C   0  0  0  0  0  0  0  0  0  0  0  0
    7.3827    2.5724   20.5432 C   0  0  0  0  0  0  0  0  0  0  0  0
   11.1529    7.2750   20.8025 C   0  0  0  0  0  0  0  0  0  0  0  0
   10.2573    8.3215   20.9827 C   0  0  0  0  0  0  0  0  0  0  0  0
   11.1606    5.9378   21.2366 N   0  0  0  0  0  0  0  0  0  0  0  0
    9.8932   11.6736   19.0677 O   0  0  0  0  0  0  0  0  0  0  0  0
    6.4470    4.5850   22.2321 C   0  0  0  0  0  0  0  0  0  0  0  0
    8.4619    6.9895   22.2968 C   0  0  0  0  0  0  0  0  0  0  0  0
   12.2747    7.5102   20.0420 C   0  0  0  0  0  0  0  0  0  0  0  0
   14.2544    6.2142   19.4191 C   0  0  0  0  0  0  0  0  0  0  0  0
   13.0695    6.3705   20.0375 N   0  0  0  0  0  0  0  0  0  0  0  0
    9.1913    8.0876   21.8361 N   0  0  0  0  0  0  0  0  0  0  0  0
   10.4739    9.4813   20.2889 C   0  0  0  0  0  0  0  0  0  0  0  0
    7.5551    7.1270   23.1200 O   0  0  0  0  0  0  0  0  0  0  0  0
  1 11  4  0
  1 21  4  0
  2  4  1  0
  2  8  1  0
  2 11  1  0
  3 10  4  0
  3 14  4  0
  4  5  1  0
  4 18  2  0
  6 12  1  0
  6 17  4  0
  6 23  4  0
  7  9  1  0
  7 13  4  0
  7 19  4  0
  9 20  1  0
 10 19  4  0
 11 25  4  0
 13 14  4  0
 15 16  4  0
 15 17  4  0
 15 21  4  0
 16 24  1  0
 16 25  4  0
 20 24  1  0
 20 26  2  0
 21 23  4  0
 22 23  1  0
M  END
$$$$

 Created by Python create_sdf_string function

 26 28  0  0  0  0  0  0  0  0999 V2000
   12.4616    8.6700   19.4180 N   0  0  0  0  0  0  0  0  0  0  0  0
   11.8329   10.8148   18.6769 N   0  0  0  0  0  0  0  0  0  0  0  0
    6.1021    2.5564   21.0678 C   0  0  0  0  0  0  0  0  0  0  0  0
   10.9097   11.8051   18.4804 C   0  0  0  0  0  0  0  0  0  0  0  0
   11.2280   12.9135   17.5669 C   0  0  0  0  0  0  0  0  0  0  0  0
   12.3782    5.4231   20.7777 C   0  0  0  0  0  0  0  0  0  0  0  0
    7.7365    4.6508   21.6987 C   0  0  0  0  0  0  0  0  0  0  0  0
   13.0186   11.0102   18.0020 C   0  0  0  0  0  0  0  0  0  0  0  0
    8.6628    5.7088   21.8871 N   0  0  0  0  0  0  0  0  0  0  0  0
    5.6516    3.5258   21.9140 C   0  0  0  0  0  0  0  0  0  0  0  0
   11.5863    9.6815   19.4539 C   0  0  0  0  0  0  0  0  0  0  0  0
   12.9648    4.1543   20.9205 C   0  0  0  0  0  0  0  0  0  0  0  0
    8.2089    3.6265   20.8929 C   0  0  0  0  0  0  0  0  0  0  0  0
    7.3827    2.5724   20.5432 C   0  0  0  0  0  0  0  0  0  0  0  0
   11.1529    7.2750   20.8025 C   0  0  0  0  0  0  0  0  0  0  0  0
   10.2573    8.3215   20.9827 C   0  0  0  0  0  0  0  0  0  0  0  0
   11.1606    5.9378   21.2366 N   0  0  0  0  0  0  0  0  0  0  0  0
    9.8932   11.6736   19.0677 O   0  0  0  0  0  0  0  0  0  0  0  0
    6.4470    4.5850   22.2321 C   0  0  0  0  0  0  0  0  0  0  0  0
    8.4619    6.9895   22.2968 C   0  0  0  0  0  0  0  0  0  0  0  0
   12.2747    7.5102   20.0420 C   0  0  0  0  0  0  0  0  0  0  0  0
   14.2544    6.2142   19.4191 C   0  0  0  0  0  0  0  0  0  0  0  0
   13.0695    6.3705   20.0375 N   0  0  0  0  0  0  0  0  0  0  0  0
    9.1913    8.0876   21.8361 N   0  0  0  0  0  0  0  0  0  0  0  0
   10.4739    9.4813   20.2889 C   0  0  0  0  0  0  0  0  0  0  0  0
    7.5551    7.1270   23.1200 O   0  0  0  0  0  0  0  0  0  0  0  0
  1 11  4  0
  1 21  4  0
  2  4  1  0
  2  8  1  0
  2 11  1  0
  3 10  4  0
  3 14  4  0
  4  5  1  0
  4 18  2  0
  6 12  1  0
  6 17  4  0
  6 23  4  0
  7  9  1  0
  7 13  4  0
  7 19  4  0
  9 20  1  0
 10 19  4  0
 11 25  4  0
 13 14  4  0
 15 16  4  0
 15 17  4  0
 15 21  4  0
 16 24  1  0
 16 25  4  0
 20 24  1  0
 20 26  2  0
 21 23  4  0
 22 23  1  0
M  END
$$$$

 Created by Python create_sdf_string function

 26 28  0  0  0  0  0  0  0  0999 V2000
   12.4616    8.6700   19.4180 N   0  0  0  0  0  0  0  0  0  0  0  0
   11.8329   10.8148   18.6769 N   0  0  0  0  0  0  0  0  0  0  0  0
    6.1021    2.5564   21.0678 C   0  0  0  0  0  0  0  0  0  0  0  0
   10.9097   11.8051   18.4804 C   0  0  0  0  0  0  0  0  0  0  0  0
   11.2280   12.9135   17.5669 C   0  0  0  0  0  0  0  0  0  0  0  0
   12.3782    5.4231   20.7777 C   0  0  0  0  0  0  0  0  0  0  0  0
    7.7365    4.6508   21.6987 C   0  0  0  0  0  0  0  0  0  0  0  0
   13.0186   11.0102   18.0020 C   0  0  0  0  0  0  0  0  0  0  0  0
    8.6628    5.7088   21.8871 N   0  0  0  0  0  0  0  0  0  0  0  0
    5.6516    3.5258   21.9140 C   0  0  0  0  0  0  0  0  0  0  0  0
   11.5863    9.6815   19.4539 C   0  0  0  0  0  0  0  0  0  0  0  0
   12.9648    4.1543   20.9205 C   0  0  0  0  0  0  0  0  0  0  0  0
    8.2089    3.6265   20.8929 C   0  0  0  0  0  0  0  0  0  0  0  0
    7.3827    2.5724   20.5432 C   0  0  0  0  0  0  0  0  0  0  0  0
   11.1529    7.2750   20.8025 C   0  0  0  0  0  0  0  0  0  0  0  0
   10.2573    8.3215   20.9827 C   0  0  0  0  0  0  0  0  0  0  0  0
   11.1606    5.9378   21.2366 N   0  0  0  0  0  0  0  0  0  0  0  0
    9.8932   11.6736   19.0677 O   0  0  0  0  0  0  0  0  0  0  0  0
    6.4470    4.5850   22.2321 C   0  0  0  0  0  0  0  0  0  0  0  0
    8.4619    6.9895   22.2968 C   0  0  0  0  0  0  0  0  0  0  0  0
   12.2747    7.5102   20.0420 C   0  0  0  0  0  0  0  0  0  0  0  0
   14.2544    6.2142   19.4191 C   0  0  0  0  0  0  0  0  0  0  0  0
   13.0695    6.3705   20.0375 N   0  0  0  0  0  0  0  0  0  0  0  0
    9.1913    8.0876   21.8361 N   0  0  0  0  0  0  0  0  0  0  0  0
   10.4739    9.4813   20.2889 C   0  0  0  0  0  0  0  0  0  0  0  0
    7.5551    7.1270   23.1200 O   0  0  0  0  0  0  0  0  0  0  0  0
  1 11  4  0
  1 21  4  0
  2  4  1  0
  2  8  1  0
  2 11  1  0
  3 10  4  0
  3 14  4  0
  4  5  1  0
  4 18  2  0
  6 12  1  0
  6 17  4  0
  6 23  4  0
  7  9  1  0
  7 13  4  0
  7 19  4  0
  9 20  1  0
 10 19  4  0
 11 25  4  0
 13 14  4  0
 15 16  4  0
 15 17  4  0
 15 21  4  0
 16 24  1  0
 16 25  4  0
 20 24  1  0
 20 26  2  0
 21 23  4  0
 22 23  1  0
M  END
$$$$

 Created by Python create_sdf_string function

 26 28  0  0  0  0  0  0  0  0999 V2000
   12.4616    8.6700   19.4180 N   0  0  0  0  0  0  0  0  0  0  0  0
   11.8329   10.8148   18.6769 N   0  0  0  0  0  0  0  0  0  0  0  0
    6.1021    2.5564   21.0678 C   0  0  0  0  0  0  0  0  0  0  0  0
   10.9097   11.8051   18.4804 C   0  0  0  0  0  0  0  0  0  0  0  0
   11.2280   12.9135   17.5669 C   0  0  0  0  0  0  0  0  0  0  0  0
   12.3782    5.4231   20.7777 C   0  0  0  0  0  0  0  0  0  0  0  0
    7.7365    4.6508   21.6987 C   0  0  0  0  0  0  0  0  0  0  0  0
   13.0186   11.0102   18.0020 C   0  0  0  0  0  0  0  0  0  0  0  0
    8.6628    5.7088   21.8871 N   0  0  0  0  0  0  0  0  0  0  0  0
    5.6516    3.5258   21.9140 C   0  0  0  0  0  0  0  0  0  0  0  0
   11.5863    9.6815   19.4539 C   0  0  0  0  0  0  0  0  0  0  0  0
   12.9648    4.1543   20.9205 C   0  0  0  0  0  0  0  0  0  0  0  0
    8.2089    3.6265   20.8929 C   0  0  0  0  0  0  0  0  0  0  0  0
    7.3827    2.5724   20.5432 C   0  0  0  0  0  0  0  0  0  0  0  0
   11.1529    7.2750   20.8025 C   0  0  0  0  0  0  0  0  0  0  0  0
   10.2573    8.3215   20.9827 C   0  0  0  0  0  0  0  0  0  0  0  0
   11.1606    5.9378   21.2366 N   0  0  0  0  0  0  0  0  0  0  0  0
    9.8932   11.6736   19.0677 O   0  0  0  0  0  0  0  0  0  0  0  0
    6.4470    4.5850   22.2321 C   0  0  0  0  0  0  0  0  0  0  0  0
    8.4619    6.9895   22.2968 C   0  0  0  0  0  0  0  0  0  0  0  0
   12.2747    7.5102   20.0420 C   0  0  0  0  0  0  0  0  0  0  0  0
   14.2544    6.2142   19.4191 C   0  0  0  0  0  0  0  0  0  0  0  0
   13.0695    6.3705   20.0375 N   0  0  0  0  0  0  0  0  0  0  0  0
    9.1913    8.0876   21.8361 N   0  0  0  0  0  0  0  0  0  0  0  0
   10.4739    9.4813   20.2889 C   0  0  0  0  0  0  0  0  0  0  0  0
    7.5551    7.1270   23.1200 O   0  0  0  0  0  0  0  0  0  0  0  0
  1 11  4  0
  1 21  4  0
  2  4  1  0
  2  8  1  0
  2 11  1  0
  3 10  4  0
  3 14  4  0
  4  5  1  0
  4 18  2  0
  6 12  1  0
  6 17  4  0
  6 23  4  0
  7  9  1  0
  7 13  4  0
  7 19  4  0
  9 20  1  0
 10 19  4  0
 11 25  4  0
 13 14  4  0
 15 16  4  0
 15 17  4  0
 15 21  4  0
 16 24  1  0
 16 25  4  0
 20 24  1  0
 20 26  2  0
 21 23  4  0
 22 23  1  0
M  END
$$$$

 Created by Python create_sdf_string function

 26 28  0  0  0  0  0  0  0  0999 V2000
   12.4616    8.6700   19.4180 N   0  0  0  0  0  0  0  0  0  0  0  0
   11.8329   10.8148   18.6769 N   0  0  0  0  0  0  0  0  0  0  0  0
    6.1021    2.5564   21.0678 C   0  0  0  0  0  0  0  0  0  0  0  0
   10.9097   11.8051   18.4804 C   0  0  0  0  0  0  0  0  0  0  0  0
   11.2280   12.9135   17.5669 C   0  0  0  0  0  0  0  0  0  0  0  0
   12.3782    5.4231   20.7777 C   0  0  0  0  0  0  0  0  0  0  0  0
    7.7365    4.6508   21.6987 C   0  0  0  0  0  0  0  0  0  0  0  0
   13.0186   11.0102   18.0020 C   0  0  0  0  0  0  0  0  0  0  0  0
    8.6628    5.7088   21.8871 N   0  0  0  0  0  0  0  0  0  0  0  0
    5.6516    3.5258   21.9140 C   0  0  0  0  0  0  0  0  0  0  0  0
   11.5863    9.6815   19.4539 C   0  0  0  0  0  0  0  0  0  0  0  0
   12.9648    4.1543   20.9205 C   0  0  0  0  0  0  0  0  0  0  0  0
    8.2089    3.6265   20.8929 C   0  0  0  0  0  0  0  0  0  0  0  0
    7.3827    2.5724   20.5432 C   0  0  0  0  0  0  0  0  0  0  0  0
   11.1529    7.2750   20.8025 C   0  0  0  0  0  0  0  0  0  0  0  0
   10.2573    8.3215   20.9827 C   0  0  0  0  0  0  0  0  0  0  0  0
   11.1606    5.9378   21.2366 N   0  0  0  0  0  0  0  0  0  0  0  0
    9.8932   11.6736   19.0677 O   0  0  0  0  0  0  0  0  0  0  0  0
    6.4470    4.5850   22.2321 C   0  0  0  0  0  0  0  0  0  0  0  0
    8.4619    6.9895   22.2968 C   0  0  0  0  0  0  0  0  0  0  0  0
   12.2747    7.5102   20.0420 C   0  0  0  0  0  0  0  0  0  0  0  0
   14.2544    6.2142   19.4191 C   0  0  0  0  0  0  0  0  0  0  0  0
   13.0695    6.3705   20.0375 N   0  0  0  0  0  0  0  0  0  0  0  0
    9.1913    8.0876   21.8361 N   0  0  0  0  0  0  0  0  0  0  0  0
   10.4739    9.4813   20.2889 C   0  0  0  0  0  0  0  0  0  0  0  0
    7.5551    7.1270   23.1200 O   0  0  0  0  0  0  0  0  0  0  0  0
  1 11  4  0
  1 21  4  0
  2  4  1  0
  2  8  1  0
  2 11  1  0
  3 10  4  0
  3 14  4  0
  4  5  1  0
  4 18  2  0
  6 12  1  0
  6 17  4  0
  6 23  4  0
  7  9  1  0
  7 13  4  0
  7 19  4  0
  9 20  1  0
 10 19  4  0
 11 25  4  0
 13 14  4  0
 15 16  4  0
 15 17  4  0
 15 21  4  0
 16 24  1  0
 16 25  4  0
 20 24  1  0
 20 26  2  0
 21 23  4  0
 22 23  1  0
M  END
$$$$

 Created by Python create_sdf_string function

 26 28  0  0  0  0  0  0  0  0999 V2000
   12.4616    8.6700   19.4180 N   0  0  0  0  0  0  0  0  0  0  0  0
   11.8329   10.8148   18.6769 N   0  0  0  0  0  0  0  0  0  0  0  0
    6.1021    2.5564   21.0678 C   0  0  0  0  0  0  0  0  0  0  0  0
   10.9097   11.8051   18.4804 C   0  0  0  0  0  0  0  0  0  0  0  0
   11.2280   12.9135   17.5669 C   0  0  0  0  0  0  0  0  0  0  0  0
   12.3782    5.4231   20.7777 C   0  0  0  0  0  0  0  0  0  0  0  0
    7.7365    4.6508   21.6987 C   0  0  0  0  0  0  0  0  0  0  0  0
   13.0186   11.0102   18.0020 C   0  0  0  0  0  0  0  0  0  0  0  0
    8.6628    5.7088   21.8871 N   0  0  0  0  0  0  0  0  0  0  0  0
    5.6516    3.5258   21.9140 C   0  0  0  0  0  0  0  0  0  0  0  0
   11.5863    9.6815   19.4539 C   0  0  0  0  0  0  0  0  0  0  0  0
   12.9648    4.1543   20.9205 C   0  0  0  0  0  0  0  0  0  0  0  0
    8.2089    3.6265   20.8929 C   0  0  0  0  0  0  0  0  0  0  0  0
    7.3827    2.5724   20.5432 C   0  0  0  0  0  0  0  0  0  0  0  0
   11.1529    7.2750   20.8025 C   0  0  0  0  0  0  0  0  0  0  0  0
   10.2573    8.3215   20.9827 C   0  0  0  0  0  0  0  0  0  0  0  0
   11.1606    5.9378   21.2366 N   0  0  0  0  0  0  0  0  0  0  0  0
    9.8932   11.6736   19.0677 O   0  0  0  0  0  0  0  0  0  0  0  0
    6.4470    4.5850   22.2321 C   0  0  0  0  0  0  0  0  0  0  0  0
    8.4619    6.9895   22.2968 C   0  0  0  0  0  0  0  0  0  0  0  0
   12.2747    7.5102   20.0420 C   0  0  0  0  0  0  0  0  0  0  0  0
   14.2544    6.2142   19.4191 C   0  0  0  0  0  0  0  0  0  0  0  0
   13.0695    6.3705   20.0375 N   0  0  0  0  0  0  0  0  0  0  0  0
    9.1913    8.0876   21.8361 N   0  0  0  0  0  0  0  0  0  0  0  0
   10.4739    9.4813   20.2889 C   0  0  0  0  0  0  0  0  0  0  0  0
    7.5551    7.1270   23.1200 O   0  0  0  0  0  0  0  0  0  0  0  0
  1 11  4  0
  1 21  4  0
  2  4  1  0
  2  8  1  0
  2 11  1  0
  3 10  4  0
  3 14  4  0
  4  5  1  0
  4 18  2  0
  6 12  1  0
  6 17  4  0
  6 23  4  0
  7  9  1  0
  7 13  4  0
  7 19  4  0
  9 20  1  0
 10 19  4  0
 11 25  4  0
 13 14  4  0
 15 16  4  0
 15 17  4  0
 15 21  4  0
 16 24  1  0
 16 25  4  0
 20 24  1  0
 20 26  2  0
 21 23  4  0
 22 23  1  0
M  END
$$$$

 Created by Python create_sdf_string function

 26 28  0  0  0  0  0  0  0  0999 V2000
   12.4616    8.6700   19.4180 N   0  0  0  0  0  0  0  0  0  0  0  0
   11.8329   10.8148   18.6769 N   0  0  0  0  0  0  0  0  0  0  0  0
    6.1021    2.5564   21.0678 C   0  0  0  0  0  0  0  0  0  0  0  0
   10.9097   11.8051   18.4804 C   0  0  0  0  0  0  0  0  0  0  0  0
   11.2280   12.9135   17.5669 C   0  0  0  0  0  0  0  0  0  0  0  0
   12.3782    5.4231   20.7777 C   0  0  0  0  0  0  0  0  0  0  0  0
    7.7365    4.6508   21.6987 C   0  0  0  0  0  0  0  0  0  0  0  0
   13.0186   11.0102   18.0020 C   0  0  0  0  0  0  0  0  0  0  0  0
    8.6628    5.7088   21.8871 N   0  0  0  0  0  0  0  0  0  0  0  0
    5.6516    3.5258   21.9140 C   0  0  0  0  0  0  0  0  0  0  0  0
   11.5863    9.6815   19.4539 C   0  0  0  0  0  0  0  0  0  0  0  0
   12.9648    4.1543   20.9205 C   0  0  0  0  0  0  0  0  0  0  0  0
    8.2089    3.6265   20.8929 C   0  0  0  0  0  0  0  0  0  0  0  0
    7.3827    2.5724   20.5432 C   0  0  0  0  0  0  0  0  0  0  0  0
   11.1529    7.2750   20.8025 C   0  0  0  0  0  0  0  0  0  0  0  0
   10.2573    8.3215   20.9827 C   0  0  0  0  0  0  0  0  0  0  0  0
   11.1606    5.9378   21.2366 N   0  0  0  0  0  0  0  0  0  0  0  0
    9.8932   11.6736   19.0677 O   0  0  0  0  0  0  0  0  0  0  0  0
    6.4470    4.5850   22.2321 C   0  0  0  0  0  0  0  0  0  0  0  0
    8.4619    6.9895   22.2968 C   0  0  0  0  0  0  0  0  0  0  0  0
   12.2747    7.5102   20.0420 C   0  0  0  0  0  0  0  0  0  0  0  0
   14.2544    6.2142   19.4191 C   0  0  0  0  0  0  0  0  0  0  0  0
   13.0695    6.3705   20.0375 N   0  0  0  0  0  0  0  0  0  0  0  0
    9.1913    8.0876   21.8361 N   0  0  0  0  0  0  0  0  0  0  0  0
   10.4739    9.4813   20.2889 C   0  0  0  0  0  0  0  0  0  0  0  0
    7.5551    7.1270   23.1200 O   0  0  0  0  0  0  0  0  0  0  0  0
  1 11  4  0
  1 21  4  0
  2  4  1  0
  2  8  1  0
  2 11  1  0
  3 10  4  0
  3 14  4  0
  4  5  1  0
  4 18  2  0
  6 12  1  0
  6 17  4  0
  6 23  4  0
  7  9  1  0
  7 13  4  0
  7 19  4  0
  9 20  1  0
 10 19  4  0
 11 25  4  0
 13 14  4  0
 15 16  4  0
 15 17  4  0
 15 21  4  0
 16 24  1  0
 16 25  4  0
 20 24  1  0
 20 26  2  0
 21 23  4  0
 22 23  1  0
M  END
$$$$

 Created by Python create_sdf_string function

 26 28  0  0  0  0  0  0  0  0999 V2000
   12.4616    8.6700   19.4180 N   0  0  0  0  0  0  0  0  0  0  0  0
   11.8329   10.8148   18.6769 N   0  0  0  0  0  0  0  0  0  0  0  0
    6.1021    2.5564   21.0678 C   0  0  0  0  0  0  0  0  0  0  0  0
   10.9097   11.8051   18.4804 C   0  0  0  0  0  0  0  0  0  0  0  0
   11.2280   12.9135   17.5669 C   0  0  0  0  0  0  0  0  0  0  0  0
   12.3782    5.4231   20.7777 C   0  0  0  0  0  0  0  0  0  0  0  0
    7.7365    4.6508   21.6987 C   0  0  0  0  0  0  0  0  0  0  0  0
   13.0186   11.0102   18.0020 C   0  0  0  0  0  0  0  0  0  0  0  0
    8.6628    5.7088   21.8871 N   0  0  0  0  0  0  0  0  0  0  0  0
    5.6516    3.5258   21.9140 C   0  0  0  0  0  0  0  0  0  0  0  0
   11.5863    9.6815   19.4539 C   0  0  0  0  0  0  0  0  0  0  0  0
   12.9648    4.1543   20.9205 C   0  0  0  0  0  0  0  0  0  0  0  0
    8.2089    3.6265   20.8929 C   0  0  0  0  0  0  0  0  0  0  0  0
    7.3827    2.5724   20.5432 C   0  0  0  0  0  0  0  0  0  0  0  0
   11.1529    7.2750   20.8025 C   0  0  0  0  0  0  0  0  0  0  0  0
   10.2573    8.3215   20.9827 C   0  0  0  0  0  0  0  0  0  0  0  0
   11.1606    5.9378   21.2366 N   0  0  0  0  0  0  0  0  0  0  0  0
    9.8932   11.6736   19.0677 O   0  0  0  0  0  0  0  0  0  0  0  0
    6.4470    4.5850   22.2321 C   0  0  0  0  0  0  0  0  0  0  0  0
    8.4619    6.9895   22.2968 C   0  0  0  0  0  0  0  0  0  0  0  0
   12.2747    7.5102   20.0420 C   0  0  0  0  0  0  0  0  0  0  0  0
   14.2544    6.2142   19.4191 C   0  0  0  0  0  0  0  0  0  0  0  0
   13.0695    6.3705   20.0375 N   0  0  0  0  0  0  0  0  0  0  0  0
    9.1913    8.0876   21.8361 N   0  0  0  0  0  0  0  0  0  0  0  0
   10.4739    9.4813   20.2889 C   0  0  0  0  0  0  0  0  0  0  0  0
    7.5551    7.1270   23.1200 O   0  0  0  0  0  0  0  0  0  0  0  0
  1 11  4  0
  1 21  4  0
  2  4  1  0
  2  8  1  0
  2 11  1  0
  3 10  4  0
  3 14  4  0
  4  5  1  0
  4 18  2  0
  6 12  1  0
  6 17  4  0
  6 23  4  0
  7  9  1  0
  7 13  4  0
  7 19  4  0
  9 20  1  0
 10 19  4  0
 11 25  4  0
 13 14  4  0
 15 16  4  0
 15 17  4  0
 15 21  4  0
 16 24  1  0
 16 25  4  0
 20 24  1  0
 20 26  2  0
 21 23  4  0
 22 23  1  0
M  END
$$$$

 Created by Python create_sdf_string function

 26 28  0  0  0  0  0  0  0  0999 V2000
   12.4616    8.6700   19.4180 N   0  0  0  0  0  0  0  0  0  0  0  0
   11.8329   10.8148   18.6769 N   0  0  0  0  0  0  0  0  0  0  0  0
    6.1021    2.5564   21.0678 C   0  0  0  0  0  0  0  0  0  0  0  0
   10.9097   11.8051   18.4804 C   0  0  0  0  0  0  0  0  0  0  0  0
   11.2280   12.9135   17.5669 C   0  0  0  0  0  0  0  0  0  0  0  0
   12.3782    5.4231   20.7777 C   0  0  0  0  0  0  0  0  0  0  0  0
    7.7365    4.6508   21.6987 C   0  0  0  0  0  0  0  0  0  0  0  0
   13.0186   11.0102   18.0020 C   0  0  0  0  0  0  0  0  0  0  0  0
    8.6628    5.7088   21.8871 N   0  0  0  0  0  0  0  0  0  0  0  0
    5.6516    3.5258   21.9140 C   0  0  0  0  0  0  0  0  0  0  0  0
   11.5863    9.6815   19.4539 C   0  0  0  0  0  0  0  0  0  0  0  0
   12.9648    4.1543   20.9205 C   0  0  0  0  0  0  0  0  0  0  0  0
    8.2089    3.6265   20.8929 C   0  0  0  0  0  0  0  0  0  0  0  0
    7.3827    2.5724   20.5432 C   0  0  0  0  0  0  0  0  0  0  0  0
   11.1529    7.2750   20.8025 C   0  0  0  0  0  0  0  0  0  0  0  0
   10.2573    8.3215   20.9827 C   0  0  0  0  0  0  0  0  0  0  0  0
   11.1606    5.9378   21.2366 N   0  0  0  0  0  0  0  0  0  0  0  0
    9.8932   11.6736   19.0677 O   0  0  0  0  0  0  0  0  0  0  0  0
    6.4470    4.5850   22.2321 C   0  0  0  0  0  0  0  0  0  0  0  0
    8.4619    6.9895   22.2968 C   0  0  0  0  0  0  0  0  0  0  0  0
   12.2747    7.5102   20.0420 C   0  0  0  0  0  0  0  0  0  0  0  0
   14.2544    6.2142   19.4191 C   0  0  0  0  0  0  0  0  0  0  0  0
   13.0695    6.3705   20.0375 N   0  0  0  0  0  0  0  0  0  0  0  0
    9.1913    8.0876   21.8361 N   0  0  0  0  0  0  0  0  0  0  0  0
   10.4739    9.4813   20.2889 C   0  0  0  0  0  0  0  0  0  0  0  0
    7.5551    7.1270   23.1200 O   0  0  0  0  0  0  0  0  0  0  0  0
  1 11  4  0
  1 21  4  0
  2  4  1  0
  2  8  1  0
  2 11  1  0
  3 10  4  0
  3 14  4  0
  4  5  1  0
  4 18  2  0
  6 12  1  0
  6 17  4  0
  6 23  4  0
  7  9  1  0
  7 13  4  0
  7 19  4  0
  9 20  1  0
 10 19  4  0
 11 25  4  0
 13 14  4  0
 15 16  4  0
 15 17  4  0
 15 21  4  0
 16 24  1  0
 16 25  4  0
 20 24  1  0
 20 26  2  0
 21 23  4  0
 22 23  1  0
M  END
$$$$

 Created by Python create_sdf_string function

 26 28  0  0  0  0  0  0  0  0999 V2000
   12.4616    8.6700   19.4180 N   0  0  0  0  0  0  0  0  0  0  0  0
   11.8329   10.8148   18.6769 N   0  0  0  0  0  0  0  0  0  0  0  0
    6.1021    2.5564   21.0678 C   0  0  0  0  0  0  0  0  0  0  0  0
   10.9097   11.8051   18.4804 C   0  0  0  0  0  0  0  0  0  0  0  0
   11.2280   12.9135   17.5669 C   0  0  0  0  0  0  0  0  0  0  0  0
   12.3782    5.4231   20.7777 C   0  0  0  0  0  0  0  0  0  0  0  0
    7.7365    4.6508   21.6987 C   0  0  0  0  0  0  0  0  0  0  0  0
   13.0186   11.0102   18.0020 C   0  0  0  0  0  0  0  0  0  0  0  0
    8.6628    5.7088   21.8871 N   0  0  0  0  0  0  0  0  0  0  0  0
    5.6516    3.5258   21.9140 C   0  0  0  0  0  0  0  0  0  0  0  0
   11.5863    9.6815   19.4539 C   0  0  0  0  0  0  0  0  0  0  0  0
   12.9648    4.1543   20.9205 C   0  0  0  0  0  0  0  0  0  0  0  0
    8.2089    3.6265   20.8929 C   0  0  0  0  0  0  0  0  0  0  0  0
    7.3827    2.5724   20.5432 C   0  0  0  0  0  0  0  0  0  0  0  0
   11.1529    7.2750   20.8025 C   0  0  0  0  0  0  0  0  0  0  0  0
   10.2573    8.3215   20.9827 C   0  0  0  0  0  0  0  0  0  0  0  0
   11.1606    5.9378   21.2366 N   0  0  0  0  0  0  0  0  0  0  0  0
    9.8932   11.6736   19.0677 O   0  0  0  0  0  0  0  0  0  0  0  0
    6.4470    4.5850   22.2321 C   0  0  0  0  0  0  0  0  0  0  0  0
    8.4619    6.9895   22.2968 C   0  0  0  0  0  0  0  0  0  0  0  0
   12.2747    7.5102   20.0420 C   0  0  0  0  0  0  0  0  0  0  0  0
   14.2544    6.2142   19.4191 C   0  0  0  0  0  0  0  0  0  0  0  0
   13.0695    6.3705   20.0375 N   0  0  0  0  0  0  0  0  0  0  0  0
    9.1913    8.0876   21.8361 N   0  0  0  0  0  0  0  0  0  0  0  0
   10.4739    9.4813   20.2889 C   0  0  0  0  0  0  0  0  0  0  0  0
    7.5551    7.1270   23.1200 O   0  0  0  0  0  0  0  0  0  0  0  0
  1 11  4  0
  1 21  4  0
  2  4  1  0
  2  8  1  0
  2 11  1  0
  3 10  4  0
  3 14  4  0
  4  5  1  0
  4 18  2  0
  6 12  1  0
  6 17  4  0
  6 23  4  0
  7  9  1  0
  7 13  4  0
  7 19  4  0
  9 20  1  0
 10 19  4  0
 11 25  4  0
 13 14  4  0
 15 16  4  0
 15 17  4  0
 15 21  4  0
 16 24  1  0
 16 25  4  0
 20 24  1  0
 20 26  2  0
 21 23  4  0
 22 23  1  0
M  END
$$$$

 Created by Python create_sdf_string function

 26 28  0  0  0  0  0  0  0  0999 V2000
   12.4616    8.6700   19.4180 N   0  0  0  0  0  0  0  0  0  0  0  0
   11.8329   10.8148   18.6769 N   0  0  0  0  0  0  0  0  0  0  0  0
    6.1021    2.5564   21.0678 C   0  0  0  0  0  0  0  0  0  0  0  0
   10.9097   11.8051   18.4804 C   0  0  0  0  0  0  0  0  0  0  0  0
   11.2280   12.9135   17.5669 C   0  0  0  0  0  0  0  0  0  0  0  0
   12.3782    5.4231   20.7777 C   0  0  0  0  0  0  0  0  0  0  0  0
    7.7365    4.6508   21.6987 C   0  0  0  0  0  0  0  0  0  0  0  0
   13.0186   11.0102   18.0020 C   0  0  0  0  0  0  0  0  0  0  0  0
    8.6628    5.7088   21.8871 N   0  0  0  0  0  0  0  0  0  0  0  0
    5.6516    3.5258   21.9140 C   0  0  0  0  0  0  0  0  0  0  0  0
   11.5863    9.6815   19.4539 C   0  0  0  0  0  0  0  0  0  0  0  0
   12.9648    4.1543   20.9205 C   0  0  0  0  0  0  0  0  0  0  0  0
    8.2089    3.6265   20.8929 C   0  0  0  0  0  0  0  0  0  0  0  0
    7.3827    2.5724   20.5432 C   0  0  0  0  0  0  0  0  0  0  0  0
   11.1529    7.2750   20.8025 C   0  0  0  0  0  0  0  0  0  0  0  0
   10.2573    8.3215   20.9827 C   0  0  0  0  0  0  0  0  0  0  0  0
   11.1606    5.9378   21.2366 N   0  0  0  0  0  0  0  0  0  0  0  0
    9.8932   11.6736   19.0677 O   0  0  0  0  0  0  0  0  0  0  0  0
    6.4470    4.5850   22.2321 C   0  0  0  0  0  0  0  0  0  0  0  0
    8.4619    6.9895   22.2968 C   0  0  0  0  0  0  0  0  0  0  0  0
   12.2747    7.5102   20.0420 C   0  0  0  0  0  0  0  0  0  0  0  0
   14.2544    6.2142   19.4191 C   0  0  0  0  0  0  0  0  0  0  0  0
   13.0695    6.3705   20.0375 N   0  0  0  0  0  0  0  0  0  0  0  0
    9.1913    8.0876   21.8361 N   0  0  0  0  0  0  0  0  0  0  0  0
   10.4739    9.4813   20.2889 C   0  0  0  0  0  0  0  0  0  0  0  0
    7.5551    7.1270   23.1200 O   0  0  0  0  0  0  0  0  0  0  0  0
  1 11  4  0
  1 21  4  0
  2  4  1  0
  2  8  1  0
  2 11  1  0
  3 10  4  0
  3 14  4  0
  4  5  1  0
  4 18  2  0
  6 12  1  0
  6 17  4  0
  6 23  4  0
  7  9  1  0
  7 13  4  0
  7 19  4  0
  9 20  1  0
 10 19  4  0
 11 25  4  0
 13 14  4  0
 15 16  4  0
 15 17  4  0
 15 21  4  0
 16 24  1  0
 16 25  4  0
 20 24  1  0
 20 26  2  0
 21 23  4  0
 22 23  1  0
M  END
$$$$

 Created by Python create_sdf_string function

 26 28  0  0  0  0  0  0  0  0999 V2000
   12.4616    8.6700   19.4180 N   0  0  0  0  0  0  0  0  0  0  0  0
   11.8329   10.8148   18.6769 N   0  0  0  0  0  0  0  0  0  0  0  0
    6.1021    2.5564   21.0678 C   0  0  0  0  0  0  0  0  0  0  0  0
   10.9097   11.8051   18.4804 C   0  0  0  0  0  0  0  0  0  0  0  0
   11.2280   12.9135   17.5669 C   0  0  0  0  0  0  0  0  0  0  0  0
   12.3782    5.4231   20.7777 C   0  0  0  0  0  0  0  0  0  0  0  0
    7.7365    4.6508   21.6987 C   0  0  0  0  0  0  0  0  0  0  0  0
   13.0186   11.0102   18.0020 C   0  0  0  0  0  0  0  0  0  0  0  0
    8.6628    5.7088   21.8871 N   0  0  0  0  0  0  0  0  0  0  0  0
    5.6516    3.5258   21.9140 C   0  0  0  0  0  0  0  0  0  0  0  0
   11.5863    9.6815   19.4539 C   0  0  0  0  0  0  0  0  0  0  0  0
   12.9648    4.1543   20.9205 C   0  0  0  0  0  0  0  0  0  0  0  0
    8.2089    3.6265   20.8929 C   0  0  0  0  0  0  0  0  0  0  0  0
    7.3827    2.5724   20.5432 C   0  0  0  0  0  0  0  0  0  0  0  0
   11.1529    7.2750   20.8025 C   0  0  0  0  0  0  0  0  0  0  0  0
   10.2573    8.3215   20.9827 C   0  0  0  0  0  0  0  0  0  0  0  0
   11.1606    5.9378   21.2366 N   0  0  0  0  0  0  0  0  0  0  0  0
    9.8932   11.6736   19.0677 O   0  0  0  0  0  0  0  0  0  0  0  0
    6.4470    4.5850   22.2321 C   0  0  0  0  0  0  0  0  0  0  0  0
    8.4619    6.9895   22.2968 C   0  0  0  0  0  0  0  0  0  0  0  0
   12.2747    7.5102   20.0420 C   0  0  0  0  0  0  0  0  0  0  0  0
   14.2544    6.2142   19.4191 C   0  0  0  0  0  0  0  0  0  0  0  0
   13.0695    6.3705   20.0375 N   0  0  0  0  0  0  0  0  0  0  0  0
    9.1913    8.0876   21.8361 N   0  0  0  0  0  0  0  0  0  0  0  0
   10.4739    9.4813   20.2889 C   0  0  0  0  0  0  0  0  0  0  0  0
    7.5551    7.1270   23.1200 O   0  0  0  0  0  0  0  0  0  0  0  0
  1 11  4  0
  1 21  4  0
  2  4  1  0
  2  8  1  0
  2 11  1  0
  3 10  4  0
  3 14  4  0
  4  5  1  0
  4 18  2  0
  6 12  1  0
  6 17  4  0
  6 23  4  0
  7  9  1  0
  7 13  4  0
  7 19  4  0
  9 20  1  0
 10 19  4  0
 11 25  4  0
 13 14  4  0
 15 16  4  0
 15 17  4  0
 15 21  4  0
 16 24  1  0
 16 25  4  0
 20 24  1  0
 20 26  2  0
 21 23  4  0
 22 23  1  0
M  END
$$$$

 Created by Python create_sdf_string function

 26 28  0  0  0  0  0  0  0  0999 V2000
   12.4616    8.6700   19.4180 N   0  0  0  0  0  0  0  0  0  0  0  0
   11.8329   10.8148   18.6769 N   0  0  0  0  0  0  0  0  0  0  0  0
    6.1021    2.5564   21.0678 C   0  0  0  0  0  0  0  0  0  0  0  0
   10.9097   11.8051   18.4804 C   0  0  0  0  0  0  0  0  0  0  0  0
   11.2280   12.9135   17.5669 C   0  0  0  0  0  0  0  0  0  0  0  0
   12.3782    5.4231   20.7777 C   0  0  0  0  0  0  0  0  0  0  0  0
    7.7365    4.6508   21.6987 C   0  0  0  0  0  0  0  0  0  0  0  0
   13.0186   11.0102   18.0020 C   0  0  0  0  0  0  0  0  0  0  0  0
    8.6628    5.7088   21.8871 N   0  0  0  0  0  0  0  0  0  0  0  0
    5.6516    3.5258   21.9140 C   0  0  0  0  0  0  0  0  0  0  0  0
   11.5863    9.6815   19.4539 C   0  0  0  0  0  0  0  0  0  0  0  0
   12.9648    4.1543   20.9205 C   0  0  0  0  0  0  0  0  0  0  0  0
    8.2089    3.6265   20.8929 C   0  0  0  0  0  0  0  0  0  0  0  0
    7.3827    2.5724   20.5432 C   0  0  0  0  0  0  0  0  0  0  0  0
   11.1529    7.2750   20.8025 C   0  0  0  0  0  0  0  0  0  0  0  0
   10.2573    8.3215   20.9827 C   0  0  0  0  0  0  0  0  0  0  0  0
   11.1606    5.9378   21.2366 N   0  0  0  0  0  0  0  0  0  0  0  0
    9.8932   11.6736   19.0677 O   0  0  0  0  0  0  0  0  0  0  0  0
    6.4470    4.5850   22.2321 C   0  0  0  0  0  0  0  0  0  0  0  0
    8.4619    6.9895   22.2968 C   0  0  0  0  0  0  0  0  0  0  0  0
   12.2747    7.5102   20.0420 C   0  0  0  0  0  0  0  0  0  0  0  0
   14.2544    6.2142   19.4191 C   0  0  0  0  0  0  0  0  0  0  0  0
   13.0695    6.3705   20.0375 N   0  0  0  0  0  0  0  0  0  0  0  0
    9.1913    8.0876   21.8361 N   0  0  0  0  0  0  0  0  0  0  0  0
   10.4739    9.4813   20.2889 C   0  0  0  0  0  0  0  0  0  0  0  0
    7.5551    7.1270   23.1200 O   0  0  0  0  0  0  0  0  0  0  0  0
  1 11  4  0
  1 21  4  0
  2  4  1  0
  2  8  1  0
  2 11  1  0
  3 10  4  0
  3 14  4  0
  4  5  1  0
  4 18  2  0
  6 12  1  0
  6 17  4  0
  6 23  4  0
  7  9  1  0
  7 13  4  0
  7 19  4  0
  9 20  1  0
 10 19  4  0
 11 25  4  0
 13 14  4  0
 15 16  4  0
 15 17  4  0
 15 21  4  0
 16 24  1  0
 16 25  4  0
 20 24  1  0
 20 26  2  0
 21 23  4  0
 22 23  1  0
M  END
$$$$

 Created by Python create_sdf_string function

 26 28  0  0  0  0  0  0  0  0999 V2000
   12.4616    8.6700   19.4180 N   0  0  0  0  0  0  0  0  0  0  0  0
   11.8329   10.8148   18.6769 N   0  0  0  0  0  0  0  0  0  0  0  0
    6.1021    2.5564   21.0678 C   0  0  0  0  0  0  0  0  0  0  0  0
   10.9097   11.8051   18.4804 C   0  0  0  0  0  0  0  0  0  0  0  0
   11.2280   12.9135   17.5669 C   0  0  0  0  0  0  0  0  0  0  0  0
   12.3782    5.4231   20.7777 C   0  0  0  0  0  0  0  0  0  0  0  0
    7.7365    4.6508   21.6987 C   0  0  0  0  0  0  0  0  0  0  0  0
   13.0186   11.0102   18.0020 C   0  0  0  0  0  0  0  0  0  0  0  0
    8.6628    5.7088   21.8871 N   0  0  0  0  0  0  0  0  0  0  0  0
    5.6516    3.5258   21.9140 C   0  0  0  0  0  0  0  0  0  0  0  0
   11.5863    9.6815   19.4539 C   0  0  0  0  0  0  0  0  0  0  0  0
   12.9648    4.1543   20.9205 C   0  0  0  0  0  0  0  0  0  0  0  0
    8.2089    3.6265   20.8929 C   0  0  0  0  0  0  0  0  0  0  0  0
    7.3827    2.5724   20.5432 C   0  0  0  0  0  0  0  0  0  0  0  0
   11.1529    7.2750   20.8025 C   0  0  0  0  0  0  0  0  0  0  0  0
   10.2573    8.3215   20.9827 C   0  0  0  0  0  0  0  0  0  0  0  0
   11.1606    5.9378   21.2366 N   0  0  0  0  0  0  0  0  0  0  0  0
    9.8932   11.6736   19.0677 O   0  0  0  0  0  0  0  0  0  0  0  0
    6.4470    4.5850   22.2321 C   0  0  0  0  0  0  0  0  0  0  0  0
    8.4619    6.9895   22.2968 C   0  0  0  0  0  0  0  0  0  0  0  0
   12.2747    7.5102   20.0420 C   0  0  0  0  0  0  0  0  0  0  0  0
   14.2544    6.2142   19.4191 C   0  0  0  0  0  0  0  0  0  0  0  0
   13.0695    6.3705   20.0375 N   0  0  0  0  0  0  0  0  0  0  0  0
    9.1913    8.0876   21.8361 N   0  0  0  0  0  0  0  0  0  0  0  0
   10.4739    9.4813   20.2889 C   0  0  0  0  0  0  0  0  0  0  0  0
    7.5551    7.1270   23.1200 O   0  0  0  0  0  0  0  0  0  0  0  0
  1 11  4  0
  1 21  4  0
  2  4  1  0
  2  8  1  0
  2 11  1  0
  3 10  4  0
  3 14  4  0
  4  5  1  0
  4 18  2  0
  6 12  1  0
  6 17  4  0
  6 23  4  0
  7  9  1  0
  7 13  4  0
  7 19  4  0
  9 20  1  0
 10 19  4  0
 11 25  4  0
 13 14  4  0
 15 16  4  0
 15 17  4  0
 15 21  4  0
 16 24  1  0
 16 25  4  0
 20 24  1  0
 20 26  2  0
 21 23  4  0
 22 23  1  0
M  END
$$$$

 Created by Python create_sdf_string function

 26 28  0  0  0  0  0  0  0  0999 V2000
   12.4616    8.6700   19.4180 N   0  0  0  0  0  0  0  0  0  0  0  0
   11.8329   10.8148   18.6769 N   0  0  0  0  0  0  0  0  0  0  0  0
    6.1021    2.5564   21.0678 C   0  0  0  0  0  0  0  0  0  0  0  0
   10.9097   11.8051   18.4804 C   0  0  0  0  0  0  0  0  0  0  0  0
   11.2280   12.9135   17.5669 C   0  0  0  0  0  0  0  0  0  0  0  0
   12.3782    5.4231   20.7777 C   0  0  0  0  0  0  0  0  0  0  0  0
    7.7365    4.6508   21.6987 C   0  0  0  0  0  0  0  0  0  0  0  0
   13.0186   11.0102   18.0020 C   0  0  0  0  0  0  0  0  0  0  0  0
    8.6628    5.7088   21.8871 N   0  0  0  0  0  0  0  0  0  0  0  0
    5.6516    3.5258   21.9140 C   0  0  0  0  0  0  0  0  0  0  0  0
   11.5863    9.6815   19.4539 C   0  0  0  0  0  0  0  0  0  0  0  0
   12.9648    4.1543   20.9205 C   0  0  0  0  0  0  0  0  0  0  0  0
    8.2089    3.6265   20.8929 C   0  0  0  0  0  0  0  0  0  0  0  0
    7.3827    2.5724   20.5432 C   0  0  0  0  0  0  0  0  0  0  0  0
   11.1529    7.2750   20.8025 C   0  0  0  0  0  0  0  0  0  0  0  0
   10.2573    8.3215   20.9827 C   0  0  0  0  0  0  0  0  0  0  0  0
   11.1606    5.9378   21.2366 N   0  0  0  0  0  0  0  0  0  0  0  0
    9.8932   11.6736   19.0677 O   0  0  0  0  0  0  0  0  0  0  0  0
    6.4470    4.5850   22.2321 C   0  0  0  0  0  0  0  0  0  0  0  0
    8.4619    6.9895   22.2968 C   0  0  0  0  0  0  0  0  0  0  0  0
   12.2747    7.5102   20.0420 C   0  0  0  0  0  0  0  0  0  0  0  0
   14.2544    6.2142   19.4191 C   0  0  0  0  0  0  0  0  0  0  0  0
   13.0695    6.3705   20.0375 N   0  0  0  0  0  0  0  0  0  0  0  0
    9.1913    8.0876   21.8361 N   0  0  0  0  0  0  0  0  0  0  0  0
   10.4739    9.4813   20.2889 C   0  0  0  0  0  0  0  0  0  0  0  0
    7.5551    7.1270   23.1200 O   0  0  0  0  0  0  0  0  0  0  0  0
  1 11  4  0
  1 21  4  0
  2  4  1  0
  2  8  1  0
  2 11  1  0
  3 10  4  0
  3 14  4  0
  4  5  1  0
  4 18  2  0
  6 12  1  0
  6 17  4  0
  6 23  4  0
  7  9  1  0
  7 13  4  0
  7 19  4  0
  9 20  1  0
 10 19  4  0
 11 25  4  0
 13 14  4  0
 15 16  4  0
 15 17  4  0
 15 21  4  0
 16 24  1  0
 16 25  4  0
 20 24  1  0
 20 26  2  0
 21 23  4  0
 22 23  1  0
M  END
$$$$

 Created by Python create_sdf_string function

 26 28  0  0  0  0  0  0  0  0999 V2000
   12.4616    8.6700   19.4180 N   0  0  0  0  0  0  0  0  0  0  0  0
   11.8329   10.8148   18.6769 N   0  0  0  0  0  0  0  0  0  0  0  0
    6.1021    2.5564   21.0678 C   0  0  0  0  0  0  0  0  0  0  0  0
   10.9097   11.8051   18.4804 C   0  0  0  0  0  0  0  0  0  0  0  0
   11.2280   12.9135   17.5669 C   0  0  0  0  0  0  0  0  0  0  0  0
   12.3782    5.4231   20.7777 C   0  0  0  0  0  0  0  0  0  0  0  0
    7.7365    4.6508   21.6987 C   0  0  0  0  0  0  0  0  0  0  0  0
   13.0186   11.0102   18.0020 C   0  0  0  0  0  0  0  0  0  0  0  0
    8.6628    5.7088   21.8871 N   0  0  0  0  0  0  0  0  0  0  0  0
    5.6516    3.5258   21.9140 C   0  0  0  0  0  0  0  0  0  0  0  0
   11.5863    9.6815   19.4539 C   0  0  0  0  0  0  0  0  0  0  0  0
   12.9648    4.1543   20.9205 C   0  0  0  0  0  0  0  0  0  0  0  0
    8.2089    3.6265   20.8929 C   0  0  0  0  0  0  0  0  0  0  0  0
    7.3827    2.5724   20.5432 C   0  0  0  0  0  0  0  0  0  0  0  0
   11.1529    7.2750   20.8025 C   0  0  0  0  0  0  0  0  0  0  0  0
   10.2573    8.3215   20.9827 C   0  0  0  0  0  0  0  0  0  0  0  0
   11.1606    5.9378   21.2366 N   0  0  0  0  0  0  0  0  0  0  0  0
    9.8932   11.6736   19.0677 O   0  0  0  0  0  0  0  0  0  0  0  0
    6.4470    4.5850   22.2321 C   0  0  0  0  0  0  0  0  0  0  0  0
    8.4619    6.9895   22.2968 C   0  0  0  0  0  0  0  0  0  0  0  0
   12.2747    7.5102   20.0420 C   0  0  0  0  0  0  0  0  0  0  0  0
   14.2544    6.2142   19.4191 C   0  0  0  0  0  0  0  0  0  0  0  0
   13.0695    6.3705   20.0375 N   0  0  0  0  0  0  0  0  0  0  0  0
    9.1913    8.0876   21.8361 N   0  0  0  0  0  0  0  0  0  0  0  0
   10.4739    9.4813   20.2889 C   0  0  0  0  0  0  0  0  0  0  0  0
    7.5551    7.1270   23.1200 O   0  0  0  0  0  0  0  0  0  0  0  0
  1 11  4  0
  1 21  4  0
  2  4  1  0
  2  8  1  0
  2 11  1  0
  3 10  4  0
  3 14  4  0
  4  5  1  0
  4 18  2  0
  6 12  1  0
  6 17  4  0
  6 23  4  0
  7  9  1  0
  7 13  4  0
  7 19  4  0
  9 20  1  0
 10 19  4  0
 11 25  4  0
 13 14  4  0
 15 16  4  0
 15 17  4  0
 15 21  4  0
 16 24  1  0
 16 25  4  0
 20 24  1  0
 20 26  2  0
 21 23  4  0
 22 23  1  0
M  END
$$$$

 Created by Python create_sdf_string function

 26 28  0  0  0  0  0  0  0  0999 V2000
   12.4616    8.6700   19.4180 N   0  0  0  0  0  0  0  0  0  0  0  0
   11.8329   10.8148   18.6769 N   0  0  0  0  0  0  0  0  0  0  0  0
    6.1021    2.5564   21.0678 C   0  0  0  0  0  0  0  0  0  0  0  0
   10.9097   11.8051   18.4804 C   0  0  0  0  0  0  0  0  0  0  0  0
   11.2280   12.9135   17.5669 C   0  0  0  0  0  0  0  0  0  0  0  0
   12.3782    5.4231   20.7777 C   0  0  0  0  0  0  0  0  0  0  0  0
    7.7365    4.6508   21.6987 C   0  0  0  0  0  0  0  0  0  0  0  0
   13.0186   11.0102   18.0020 C   0  0  0  0  0  0  0  0  0  0  0  0
    8.6628    5.7088   21.8871 N   0  0  0  0  0  0  0  0  0  0  0  0
    5.6516    3.5258   21.9140 C   0  0  0  0  0  0  0  0  0  0  0  0
   11.5863    9.6815   19.4539 C   0  0  0  0  0  0  0  0  0  0  0  0
   12.9648    4.1543   20.9205 C   0  0  0  0  0  0  0  0  0  0  0  0
    8.2089    3.6265   20.8929 C   0  0  0  0  0  0  0  0  0  0  0  0
    7.3827    2.5724   20.5432 C   0  0  0  0  0  0  0  0  0  0  0  0
   11.1529    7.2750   20.8025 C   0  0  0  0  0  0  0  0  0  0  0  0
   10.2573    8.3215   20.9827 C   0  0  0  0  0  0  0  0  0  0  0  0
   11.1606    5.9378   21.2366 N   0  0  0  0  0  0  0  0  0  0  0  0
    9.8932   11.6736   19.0677 O   0  0  0  0  0  0  0  0  0  0  0  0
    6.4470    4.5850   22.2321 C   0  0  0  0  0  0  0  0  0  0  0  0
    8.4619    6.9895   22.2968 C   0  0  0  0  0  0  0  0  0  0  0  0
   12.2747    7.5102   20.0420 C   0  0  0  0  0  0  0  0  0  0  0  0
   14.2544    6.2142   19.4191 C   0  0  0  0  0  0  0  0  0  0  0  0
   13.0695    6.3705   20.0375 N   0  0  0  0  0  0  0  0  0  0  0  0
    9.1913    8.0876   21.8361 N   0  0  0  0  0  0  0  0  0  0  0  0
   10.4739    9.4813   20.2889 C   0  0  0  0  0  0  0  0  0  0  0  0
    7.5551    7.1270   23.1200 O   0  0  0  0  0  0  0  0  0  0  0  0
  1 11  4  0
  1 21  4  0
  2  4  1  0
  2  8  1  0
  2 11  1  0
  3 10  4  0
  3 14  4  0
  4  5  1  0
  4 18  2  0
  6 12  1  0
  6 17  4  0
  6 23  4  0
  7  9  1  0
  7 13  4  0
  7 19  4  0
  9 20  1  0
 10 19  4  0
 11 25  4  0
 13 14  4  0
 15 16  4  0
 15 17  4  0
 15 21  4  0
 16 24  1  0
 16 25  4  0
 20 24  1  0
 20 26  2  0
 21 23  4  0
 22 23  1  0
M  END
$$$$

 Created by Python create_sdf_string function

 26 28  0  0  0  0  0  0  0  0999 V2000
   12.4616    8.6700   19.4180 N   0  0  0  0  0  0  0  0  0  0  0  0
   11.8329   10.8148   18.6769 N   0  0  0  0  0  0  0  0  0  0  0  0
    6.1021    2.5564   21.0678 C   0  0  0  0  0  0  0  0  0  0  0  0
   10.9097   11.8051   18.4804 C   0  0  0  0  0  0  0  0  0  0  0  0
   11.2280   12.9135   17.5669 C   0  0  0  0  0  0  0  0  0  0  0  0
   12.3782    5.4231   20.7777 C   0  0  0  0  0  0  0  0  0  0  0  0
    7.7365    4.6508   21.6987 C   0  0  0  0  0  0  0  0  0  0  0  0
   13.0186   11.0102   18.0020 C   0  0  0  0  0  0  0  0  0  0  0  0
    8.6628    5.7088   21.8871 N   0  0  0  0  0  0  0  0  0  0  0  0
    5.6516    3.5258   21.9140 C   0  0  0  0  0  0  0  0  0  0  0  0
   11.5863    9.6815   19.4539 C   0  0  0  0  0  0  0  0  0  0  0  0
   12.9648    4.1543   20.9205 C   0  0  0  0  0  0  0  0  0  0  0  0
    8.2089    3.6265   20.8929 C   0  0  0  0  0  0  0  0  0  0  0  0
    7.3827    2.5724   20.5432 C   0  0  0  0  0  0  0  0  0  0  0  0
   11.1529    7.2750   20.8025 C   0  0  0  0  0  0  0  0  0  0  0  0
   10.2573    8.3215   20.9827 C   0  0  0  0  0  0  0  0  0  0  0  0
   11.1606    5.9378   21.2366 N   0  0  0  0  0  0  0  0  0  0  0  0
    9.8932   11.6736   19.0677 O   0  0  0  0  0  0  0  0  0  0  0  0
    6.4470    4.5850   22.2321 C   0  0  0  0  0  0  0  0  0  0  0  0
    8.4619    6.9895   22.2968 C   0  0  0  0  0  0  0  0  0  0  0  0
   12.2747    7.5102   20.0420 C   0  0  0  0  0  0  0  0  0  0  0  0
   14.2544    6.2142   19.4191 C   0  0  0  0  0  0  0  0  0  0  0  0
   13.0695    6.3705   20.0375 N   0  0  0  0  0  0  0  0  0  0  0  0
    9.1913    8.0876   21.8361 N   0  0  0  0  0  0  0  0  0  0  0  0
   10.4739    9.4813   20.2889 C   0  0  0  0  0  0  0  0  0  0  0  0
    7.5551    7.1270   23.1200 O   0  0  0  0  0  0  0  0  0  0  0  0
  1 11  4  0
  1 21  4  0
  2  4  1  0
  2  8  1  0
  2 11  1  0
  3 10  4  0
  3 14  4  0
  4  5  1  0
  4 18  2  0
  6 12  1  0
  6 17  4  0
  6 23  4  0
  7  9  1  0
  7 13  4  0
  7 19  4  0
  9 20  1  0
 10 19  4  0
 11 25  4  0
 13 14  4  0
 15 16  4  0
 15 17  4  0
 15 21  4  0
 16 24  1  0
 16 25  4  0
 20 24  1  0
 20 26  2  0
 21 23  4  0
 22 23  1  0
M  END
$$$$

 Created by Python create_sdf_string function

 26 28  0  0  0  0  0  0  0  0999 V2000
   12.4616    8.6700   19.4180 N   0  0  0  0  0  0  0  0  0  0  0  0
   11.8329   10.8148   18.6769 N   0  0  0  0  0  0  0  0  0  0  0  0
    6.1021    2.5564   21.0678 C   0  0  0  0  0  0  0  0  0  0  0  0
   10.9097   11.8051   18.4804 C   0  0  0  0  0  0  0  0  0  0  0  0
   11.2280   12.9135   17.5669 C   0  0  0  0  0  0  0  0  0  0  0  0
   12.3782    5.4231   20.7777 C   0  0  0  0  0  0  0  0  0  0  0  0
    7.7365    4.6508   21.6987 C   0  0  0  0  0  0  0  0  0  0  0  0
   13.0186   11.0102   18.0020 C   0  0  0  0  0  0  0  0  0  0  0  0
    8.6628    5.7088   21.8871 N   0  0  0  0  0  0  0  0  0  0  0  0
    5.6516    3.5258   21.9140 C   0  0  0  0  0  0  0  0  0  0  0  0
   11.5863    9.6815   19.4539 C   0  0  0  0  0  0  0  0  0  0  0  0
   12.9648    4.1543   20.9205 C   0  0  0  0  0  0  0  0  0  0  0  0
    8.2089    3.6265   20.8929 C   0  0  0  0  0  0  0  0  0  0  0  0
    7.3827    2.5724   20.5432 C   0  0  0  0  0  0  0  0  0  0  0  0
   11.1529    7.2750   20.8025 C   0  0  0  0  0  0  0  0  0  0  0  0
   10.2573    8.3215   20.9827 C   0  0  0  0  0  0  0  0  0  0  0  0
   11.1606    5.9378   21.2366 N   0  0  0  0  0  0  0  0  0  0  0  0
    9.8932   11.6736   19.0677 O   0  0  0  0  0  0  0  0  0  0  0  0
    6.4470    4.5850   22.2321 C   0  0  0  0  0  0  0  0  0  0  0  0
    8.4619    6.9895   22.2968 C   0  0  0  0  0  0  0  0  0  0  0  0
   12.2747    7.5102   20.0420 C   0  0  0  0  0  0  0  0  0  0  0  0
   14.2544    6.2142   19.4191 C   0  0  0  0  0  0  0  0  0  0  0  0
   13.0695    6.3705   20.0375 N   0  0  0  0  0  0  0  0  0  0  0  0
    9.1913    8.0876   21.8361 N   0  0  0  0  0  0  0  0  0  0  0  0
   10.4739    9.4813   20.2889 C   0  0  0  0  0  0  0  0  0  0  0  0
    7.5551    7.1270   23.1200 O   0  0  0  0  0  0  0  0  0  0  0  0
  1 11  4  0
  1 21  4  0
  2  4  1  0
  2  8  1  0
  2 11  1  0
  3 10  4  0
  3 14  4  0
  4  5  1  0
  4 18  2  0
  6 12  1  0
  6 17  4  0
  6 23  4  0
  7  9  1  0
  7 13  4  0
  7 19  4  0
  9 20  1  0
 10 19  4  0
 11 25  4  0
 13 14  4  0
 15 16  4  0
 15 17  4  0
 15 21  4  0
 16 24  1  0
 16 25  4  0
 20 24  1  0
 20 26  2  0
 21 23  4  0
 22 23  1  0
M  END
$$$$

 Created by Python create_sdf_string function

 26 28  0  0  0  0  0  0  0  0999 V2000
   12.4616    8.6700   19.4180 N   0  0  0  0  0  0  0  0  0  0  0  0
   11.8329   10.8148   18.6769 N   0  0  0  0  0  0  0  0  0  0  0  0
    6.1021    2.5564   21.0678 C   0  0  0  0  0  0  0  0  0  0  0  0
   10.9097   11.8051   18.4804 C   0  0  0  0  0  0  0  0  0  0  0  0
   11.2280   12.9135   17.5669 C   0  0  0  0  0  0  0  0  0  0  0  0
   12.3782    5.4231   20.7777 C   0  0  0  0  0  0  0  0  0  0  0  0
    7.7365    4.6508   21.6987 C   0  0  0  0  0  0  0  0  0  0  0  0
   13.0186   11.0102   18.0020 C   0  0  0  0  0  0  0  0  0  0  0  0
    8.6628    5.7088   21.8871 N   0  0  0  0  0  0  0  0  0  0  0  0
    5.6516    3.5258   21.9140 C   0  0  0  0  0  0  0  0  0  0  0  0
   11.5863    9.6815   19.4539 C   0  0  0  0  0  0  0  0  0  0  0  0
   12.9648    4.1543   20.9205 C   0  0  0  0  0  0  0  0  0  0  0  0
    8.2089    3.6265   20.8929 C   0  0  0  0  0  0  0  0  0  0  0  0
    7.3827    2.5724   20.5432 C   0  0  0  0  0  0  0  0  0  0  0  0
   11.1529    7.2750   20.8025 C   0  0  0  0  0  0  0  0  0  0  0  0
   10.2573    8.3215   20.9827 C   0  0  0  0  0  0  0  0  0  0  0  0
   11.1606    5.9378   21.2366 N   0  0  0  0  0  0  0  0  0  0  0  0
    9.8932   11.6736   19.0677 O   0  0  0  0  0  0  0  0  0  0  0  0
    6.4470    4.5850   22.2321 C   0  0  0  0  0  0  0  0  0  0  0  0
    8.4619    6.9895   22.2968 C   0  0  0  0  0  0  0  0  0  0  0  0
   12.2747    7.5102   20.0420 C   0  0  0  0  0  0  0  0  0  0  0  0
   14.2544    6.2142   19.4191 C   0  0  0  0  0  0  0  0  0  0  0  0
   13.0695    6.3705   20.0375 N   0  0  0  0  0  0  0  0  0  0  0  0
    9.1913    8.0876   21.8361 N   0  0  0  0  0  0  0  0  0  0  0  0
   10.4739    9.4813   20.2889 C   0  0  0  0  0  0  0  0  0  0  0  0
    7.5551    7.1270   23.1200 O   0  0  0  0  0  0  0  0  0  0  0  0
  1 11  4  0
  1 21  4  0
  2  4  1  0
  2  8  1  0
  2 11  1  0
  3 10  4  0
  3 14  4  0
  4  5  1  0
  4 18  2  0
  6 12  1  0
  6 17  4  0
  6 23  4  0
  7  9  1  0
  7 13  4  0
  7 19  4  0
  9 20  1  0
 10 19  4  0
 11 25  4  0
 13 14  4  0
 15 16  4  0
 15 17  4  0
 15 21  4  0
 16 24  1  0
 16 25  4  0
 20 24  1  0
 20 26  2  0
 21 23  4  0
 22 23  1  0
M  END
$$$$

 Created by Python create_sdf_string function

 26 28  0  0  0  0  0  0  0  0999 V2000
   12.4616    8.6700   19.4180 N   0  0  0  0  0  0  0  0  0  0  0  0
   11.8329   10.8148   18.6769 N   0  0  0  0  0  0  0  0  0  0  0  0
    6.1021    2.5564   21.0678 C   0  0  0  0  0  0  0  0  0  0  0  0
   10.9097   11.8051   18.4804 C   0  0  0  0  0  0  0  0  0  0  0  0
   11.2280   12.9135   17.5669 C   0  0  0  0  0  0  0  0  0  0  0  0
   12.3782    5.4231   20.7777 C   0  0  0  0  0  0  0  0  0  0  0  0
    7.7365    4.6508   21.6987 C   0  0  0  0  0  0  0  0  0  0  0  0
   13.0186   11.0102   18.0020 C   0  0  0  0  0  0  0  0  0  0  0  0
    8.6628    5.7088   21.8871 N   0  0  0  0  0  0  0  0  0  0  0  0
    5.6516    3.5258   21.9140 C   0  0  0  0  0  0  0  0  0  0  0  0
   11.5863    9.6815   19.4539 C   0  0  0  0  0  0  0  0  0  0  0  0
   12.9648    4.1543   20.9205 C   0  0  0  0  0  0  0  0  0  0  0  0
    8.2089    3.6265   20.8929 C   0  0  0  0  0  0  0  0  0  0  0  0
    7.3827    2.5724   20.5432 C   0  0  0  0  0  0  0  0  0  0  0  0
   11.1529    7.2750   20.8025 C   0  0  0  0  0  0  0  0  0  0  0  0
   10.2573    8.3215   20.9827 C   0  0  0  0  0  0  0  0  0  0  0  0
   11.1606    5.9378   21.2366 N   0  0  0  0  0  0  0  0  0  0  0  0
    9.8932   11.6736   19.0677 O   0  0  0  0  0  0  0  0  0  0  0  0
    6.4470    4.5850   22.2321 C   0  0  0  0  0  0  0  0  0  0  0  0
    8.4619    6.9895   22.2968 C   0  0  0  0  0  0  0  0  0  0  0  0
   12.2747    7.5102   20.0420 C   0  0  0  0  0  0  0  0  0  0  0  0
   14.2544    6.2142   19.4191 C   0  0  0  0  0  0  0  0  0  0  0  0
   13.0695    6.3705   20.0375 N   0  0  0  0  0  0  0  0  0  0  0  0
    9.1913    8.0876   21.8361 N   0  0  0  0  0  0  0  0  0  0  0  0
   10.4739    9.4813   20.2889 C   0  0  0  0  0  0  0  0  0  0  0  0
    7.5551    7.1270   23.1200 O   0  0  0  0  0  0  0  0  0  0  0  0
  1 11  4  0
  1 21  4  0
  2  4  1  0
  2  8  1  0
  2 11  1  0
  3 10  4  0
  3 14  4  0
  4  5  1  0
  4 18  2  0
  6 12  1  0
  6 17  4  0
  6 23  4  0
  7  9  1  0
  7 13  4  0
  7 19  4  0
  9 20  1  0
 10 19  4  0
 11 25  4  0
 13 14  4  0
 15 16  4  0
 15 17  4  0
 15 21  4  0
 16 24  1  0
 16 25  4  0
 20 24  1  0
 20 26  2  0
 21 23  4  0
 22 23  1  0
M  END
$$$$

 Created by Python create_sdf_string function

 26 28  0  0  0  0  0  0  0  0999 V2000
   12.4616    8.6700   19.4180 N   0  0  0  0  0  0  0  0  0  0  0  0
   11.8329   10.8148   18.6769 N   0  0  0  0  0  0  0  0  0  0  0  0
    6.1021    2.5564   21.0678 C   0  0  0  0  0  0  0  0  0  0  0  0
   10.9097   11.8051   18.4804 C   0  0  0  0  0  0  0  0  0  0  0  0
   11.2280   12.9135   17.5669 C   0  0  0  0  0  0  0  0  0  0  0  0
   12.3782    5.4231   20.7777 C   0  0  0  0  0  0  0  0  0  0  0  0
    7.7365    4.6508   21.6987 C   0  0  0  0  0  0  0  0  0  0  0  0
   13.0186   11.0102   18.0020 C   0  0  0  0  0  0  0  0  0  0  0  0
    8.6628    5.7088   21.8871 N   0  0  0  0  0  0  0  0  0  0  0  0
    5.6516    3.5258   21.9140 C   0  0  0  0  0  0  0  0  0  0  0  0
   11.5863    9.6815   19.4539 C   0  0  0  0  0  0  0  0  0  0  0  0
   12.9648    4.1543   20.9205 C   0  0  0  0  0  0  0  0  0  0  0  0
    8.2089    3.6265   20.8929 C   0  0  0  0  0  0  0  0  0  0  0  0
    7.3827    2.5724   20.5432 C   0  0  0  0  0  0  0  0  0  0  0  0
   11.1529    7.2750   20.8025 C   0  0  0  0  0  0  0  0  0  0  0  0
   10.2573    8.3215   20.9827 C   0  0  0  0  0  0  0  0  0  0  0  0
   11.1606    5.9378   21.2366 N   0  0  0  0  0  0  0  0  0  0  0  0
    9.8932   11.6736   19.0677 O   0  0  0  0  0  0  0  0  0  0  0  0
    6.4470    4.5850   22.2321 C   0  0  0  0  0  0  0  0  0  0  0  0
    8.4619    6.9895   22.2968 C   0  0  0  0  0  0  0  0  0  0  0  0
   12.2747    7.5102   20.0420 C   0  0  0  0  0  0  0  0  0  0  0  0
   14.2544    6.2142   19.4191 C   0  0  0  0  0  0  0  0  0  0  0  0
   13.0695    6.3705   20.0375 N   0  0  0  0  0  0  0  0  0  0  0  0
    9.1913    8.0876   21.8361 N   0  0  0  0  0  0  0  0  0  0  0  0
   10.4739    9.4813   20.2889 C   0  0  0  0  0  0  0  0  0  0  0  0
    7.5551    7.1270   23.1200 O   0  0  0  0  0  0  0  0  0  0  0  0
  1 11  4  0
  1 21  4  0
  2  4  1  0
  2  8  1  0
  2 11  1  0
  3 10  4  0
  3 14  4  0
  4  5  1  0
  4 18  2  0
  6 12  1  0
  6 17  4  0
  6 23  4  0
  7  9  1  0
  7 13  4  0
  7 19  4  0
  9 20  1  0
 10 19  4  0
 11 25  4  0
 13 14  4  0
 15 16  4  0
 15 17  4  0
 15 21  4  0
 16 24  1  0
 16 25  4  0
 20 24  1  0
 20 26  2  0
 21 23  4  0
 22 23  1  0
M  END
$$$$

 Created by Python create_sdf_string function

 26 28  0  0  0  0  0  0  0  0999 V2000
   12.4616    8.6700   19.4180 N   0  0  0  0  0  0  0  0  0  0  0  0
   11.8329   10.8148   18.6769 N   0  0  0  0  0  0  0  0  0  0  0  0
    6.1021    2.5564   21.0678 C   0  0  0  0  0  0  0  0  0  0  0  0
   10.9097   11.8051   18.4804 C   0  0  0  0  0  0  0  0  0  0  0  0
   11.2280   12.9135   17.5669 C   0  0  0  0  0  0  0  0  0  0  0  0
   12.3782    5.4231   20.7777 C   0  0  0  0  0  0  0  0  0  0  0  0
    7.7365    4.6508   21.6987 C   0  0  0  0  0  0  0  0  0  0  0  0
   13.0186   11.0102   18.0020 C   0  0  0  0  0  0  0  0  0  0  0  0
    8.6628    5.7088   21.8871 N   0  0  0  0  0  0  0  0  0  0  0  0
    5.6516    3.5258   21.9140 C   0  0  0  0  0  0  0  0  0  0  0  0
   11.5863    9.6815   19.4539 C   0  0  0  0  0  0  0  0  0  0  0  0
   12.9648    4.1543   20.9205 C   0  0  0  0  0  0  0  0  0  0  0  0
    8.2089    3.6265   20.8929 C   0  0  0  0  0  0  0  0  0  0  0  0
    7.3827    2.5724   20.5432 C   0  0  0  0  0  0  0  0  0  0  0  0
   11.1529    7.2750   20.8025 C   0  0  0  0  0  0  0  0  0  0  0  0
   10.2573    8.3215   20.9827 C   0  0  0  0  0  0  0  0  0  0  0  0
   11.1606    5.9378   21.2366 N   0  0  0  0  0  0  0  0  0  0  0  0
    9.8932   11.6736   19.0677 O   0  0  0  0  0  0  0  0  0  0  0  0
    6.4470    4.5850   22.2321 C   0  0  0  0  0  0  0  0  0  0  0  0
    8.4619    6.9895   22.2968 C   0  0  0  0  0  0  0  0  0  0  0  0
   12.2747    7.5102   20.0420 C   0  0  0  0  0  0  0  0  0  0  0  0
   14.2544    6.2142   19.4191 C   0  0  0  0  0  0  0  0  0  0  0  0
   13.0695    6.3705   20.0375 N   0  0  0  0  0  0  0  0  0  0  0  0
    9.1913    8.0876   21.8361 N   0  0  0  0  0  0  0  0  0  0  0  0
   10.4739    9.4813   20.2889 C   0  0  0  0  0  0  0  0  0  0  0  0
    7.5551    7.1270   23.1200 O   0  0  0  0  0  0  0  0  0  0  0  0
  1 11  4  0
  1 21  4  0
  2  4  1  0
  2  8  1  0
  2 11  1  0
  3 10  4  0
  3 14  4  0
  4  5  1  0
  4 18  2  0
  6 12  1  0
  6 17  4  0
  6 23  4  0
  7  9  1  0
  7 13  4  0
  7 19  4  0
  9 20  1  0
 10 19  4  0
 11 25  4  0
 13 14  4  0
 15 16  4  0
 15 17  4  0
 15 21  4  0
 16 24  1  0
 16 25  4  0
 20 24  1  0
 20 26  2  0
 21 23  4  0
 22 23  1  0
M  END
$$$$

 Created by Python create_sdf_string function

 26 28  0  0  0  0  0  0  0  0999 V2000
   12.4616    8.6700   19.4180 N   0  0  0  0  0  0  0  0  0  0  0  0
   11.8329   10.8148   18.6769 N   0  0  0  0  0  0  0  0  0  0  0  0
    6.1021    2.5564   21.0678 C   0  0  0  0  0  0  0  0  0  0  0  0
   10.9097   11.8051   18.4804 C   0  0  0  0  0  0  0  0  0  0  0  0
   11.2280   12.9135   17.5669 C   0  0  0  0  0  0  0  0  0  0  0  0
   12.3782    5.4231   20.7777 C   0  0  0  0  0  0  0  0  0  0  0  0
    7.7365    4.6508   21.6987 C   0  0  0  0  0  0  0  0  0  0  0  0
   13.0186   11.0102   18.0020 C   0  0  0  0  0  0  0  0  0  0  0  0
    8.6628    5.7088   21.8871 N   0  0  0  0  0  0  0  0  0  0  0  0
    5.6516    3.5258   21.9140 C   0  0  0  0  0  0  0  0  0  0  0  0
   11.5863    9.6815   19.4539 C   0  0  0  0  0  0  0  0  0  0  0  0
   12.9648    4.1543   20.9205 C   0  0  0  0  0  0  0  0  0  0  0  0
    8.2089    3.6265   20.8929 C   0  0  0  0  0  0  0  0  0  0  0  0
    7.3827    2.5724   20.5432 C   0  0  0  0  0  0  0  0  0  0  0  0
   11.1529    7.2750   20.8025 C   0  0  0  0  0  0  0  0  0  0  0  0
   10.2573    8.3215   20.9827 C   0  0  0  0  0  0  0  0  0  0  0  0
   11.1606    5.9378   21.2366 N   0  0  0  0  0  0  0  0  0  0  0  0
    9.8932   11.6736   19.0677 O   0  0  0  0  0  0  0  0  0  0  0  0
    6.4470    4.5850   22.2321 C   0  0  0  0  0  0  0  0  0  0  0  0
    8.4619    6.9895   22.2968 C   0  0  0  0  0  0  0  0  0  0  0  0
   12.2747    7.5102   20.0420 C   0  0  0  0  0  0  0  0  0  0  0  0
   14.2544    6.2142   19.4191 C   0  0  0  0  0  0  0  0  0  0  0  0
   13.0695    6.3705   20.0375 N   0  0  0  0  0  0  0  0  0  0  0  0
    9.1913    8.0876   21.8361 N   0  0  0  0  0  0  0  0  0  0  0  0
   10.4739    9.4813   20.2889 C   0  0  0  0  0  0  0  0  0  0  0  0
    7.5551    7.1270   23.1200 O   0  0  0  0  0  0  0  0  0  0  0  0
  1 11  4  0
  1 21  4  0
  2  4  1  0
  2  8  1  0
  2 11  1  0
  3 10  4  0
  3 14  4  0
  4  5  1  0
  4 18  2  0
  6 12  1  0
  6 17  4  0
  6 23  4  0
  7  9  1  0
  7 13  4  0
  7 19  4  0
  9 20  1  0
 10 19  4  0
 11 25  4  0
 13 14  4  0
 15 16  4  0
 15 17  4  0
 15 21  4  0
 16 24  1  0
 16 25  4  0
 20 24  1  0
 20 26  2  0
 21 23  4  0
 22 23  1  0
M  END
$$$$

 Created by Python create_sdf_string function

 26 28  0  0  0  0  0  0  0  0999 V2000
   12.4616    8.6700   19.4180 N   0  0  0  0  0  0  0  0  0  0  0  0
   11.8329   10.8148   18.6769 N   0  0  0  0  0  0  0  0  0  0  0  0
    6.1021    2.5564   21.0678 C   0  0  0  0  0  0  0  0  0  0  0  0
   10.9097   11.8051   18.4804 C   0  0  0  0  0  0  0  0  0  0  0  0
   11.2280   12.9135   17.5669 C   0  0  0  0  0  0  0  0  0  0  0  0
   12.3782    5.4231   20.7777 C   0  0  0  0  0  0  0  0  0  0  0  0
    7.7365    4.6508   21.6987 C   0  0  0  0  0  0  0  0  0  0  0  0
   13.0186   11.0102   18.0020 C   0  0  0  0  0  0  0  0  0  0  0  0
    8.6628    5.7088   21.8871 N   0  0  0  0  0  0  0  0  0  0  0  0
    5.6516    3.5258   21.9140 C   0  0  0  0  0  0  0  0  0  0  0  0
   11.5863    9.6815   19.4539 C   0  0  0  0  0  0  0  0  0  0  0  0
   12.9648    4.1543   20.9205 C   0  0  0  0  0  0  0  0  0  0  0  0
    8.2089    3.6265   20.8929 C   0  0  0  0  0  0  0  0  0  0  0  0
    7.3827    2.5724   20.5432 C   0  0  0  0  0  0  0  0  0  0  0  0
   11.1529    7.2750   20.8025 C   0  0  0  0  0  0  0  0  0  0  0  0
   10.2573    8.3215   20.9827 C   0  0  0  0  0  0  0  0  0  0  0  0
   11.1606    5.9378   21.2366 N   0  0  0  0  0  0  0  0  0  0  0  0
    9.8932   11.6736   19.0677 O   0  0  0  0  0  0  0  0  0  0  0  0
    6.4470    4.5850   22.2321 C   0  0  0  0  0  0  0  0  0  0  0  0
    8.4619    6.9895   22.2968 C   0  0  0  0  0  0  0  0  0  0  0  0
   12.2747    7.5102   20.0420 C   0  0  0  0  0  0  0  0  0  0  0  0
   14.2544    6.2142   19.4191 C   0  0  0  0  0  0  0  0  0  0  0  0
   13.0695    6.3705   20.0375 N   0  0  0  0  0  0  0  0  0  0  0  0
    9.1913    8.0876   21.8361 N   0  0  0  0  0  0  0  0  0  0  0  0
   10.4739    9.4813   20.2889 C   0  0  0  0  0  0  0  0  0  0  0  0
    7.5551    7.1270   23.1200 O   0  0  0  0  0  0  0  0  0  0  0  0
  1 11  4  0
  1 21  4  0
  2  4  1  0
  2  8  1  0
  2 11  1  0
  3 10  4  0
  3 14  4  0
  4  5  1  0
  4 18  2  0
  6 12  1  0
  6 17  4  0
  6 23  4  0
  7  9  1  0
  7 13  4  0
  7 19  4  0
  9 20  1  0
 10 19  4  0
 11 25  4  0
 13 14  4  0
 15 16  4  0
 15 17  4  0
 15 21  4  0
 16 24  1  0
 16 25  4  0
 20 24  1  0
 20 26  2  0
 21 23  4  0
 22 23  1  0
M  END
$$$$

 Created by Python create_sdf_string function

 26 28  0  0  0  0  0  0  0  0999 V2000
   12.4616    8.6700   19.4180 N   0  0  0  0  0  0  0  0  0  0  0  0
   11.8329   10.8148   18.6769 N   0  0  0  0  0  0  0  0  0  0  0  0
    6.1021    2.5564   21.0678 C   0  0  0  0  0  0  0  0  0  0  0  0
   10.9097   11.8051   18.4804 C   0  0  0  0  0  0  0  0  0  0  0  0
   11.2280   12.9135   17.5669 C   0  0  0  0  0  0  0  0  0  0  0  0
   12.3782    5.4231   20.7777 C   0  0  0  0  0  0  0  0  0  0  0  0
    7.7365    4.6508   21.6987 C   0  0  0  0  0  0  0  0  0  0  0  0
   13.0186   11.0102   18.0020 C   0  0  0  0  0  0  0  0  0  0  0  0
    8.6628    5.7088   21.8871 N   0  0  0  0  0  0  0  0  0  0  0  0
    5.6516    3.5258   21.9140 C   0  0  0  0  0  0  0  0  0  0  0  0
   11.5863    9.6815   19.4539 C   0  0  0  0  0  0  0  0  0  0  0  0
   12.9648    4.1543   20.9205 C   0  0  0  0  0  0  0  0  0  0  0  0
    8.2089    3.6265   20.8929 C   0  0  0  0  0  0  0  0  0  0  0  0
    7.3827    2.5724   20.5432 C   0  0  0  0  0  0  0  0  0  0  0  0
   11.1529    7.2750   20.8025 C   0  0  0  0  0  0  0  0  0  0  0  0
   10.2573    8.3215   20.9827 C   0  0  0  0  0  0  0  0  0  0  0  0
   11.1606    5.9378   21.2366 N   0  0  0  0  0  0  0  0  0  0  0  0
    9.8932   11.6736   19.0677 O   0  0  0  0  0  0  0  0  0  0  0  0
    6.4470    4.5850   22.2321 C   0  0  0  0  0  0  0  0  0  0  0  0
    8.4619    6.9895   22.2968 C   0  0  0  0  0  0  0  0  0  0  0  0
   12.2747    7.5102   20.0420 C   0  0  0  0  0  0  0  0  0  0  0  0
   14.2544    6.2142   19.4191 C   0  0  0  0  0  0  0  0  0  0  0  0
   13.0695    6.3705   20.0375 N   0  0  0  0  0  0  0  0  0  0  0  0
    9.1913    8.0876   21.8361 N   0  0  0  0  0  0  0  0  0  0  0  0
   10.4739    9.4813   20.2889 C   0  0  0  0  0  0  0  0  0  0  0  0
    7.5551    7.1270   23.1200 O   0  0  0  0  0  0  0  0  0  0  0  0
  1 11  4  0
  1 21  4  0
  2  4  1  0
  2  8  1  0
  2 11  1  0
  3 10  4  0
  3 14  4  0
  4  5  1  0
  4 18  2  0
  6 12  1  0
  6 17  4  0
  6 23  4  0
  7  9  1  0
  7 13  4  0
  7 19  4  0
  9 20  1  0
 10 19  4  0
 11 25  4  0
 13 14  4  0
 15 16  4  0
 15 17  4  0
 15 21  4  0
 16 24  1  0
 16 25  4  0
 20 24  1  0
 20 26  2  0
 21 23  4  0
 22 23  1  0
M  END
$$$$

 Created by Python create_sdf_string function

 26 28  0  0  0  0  0  0  0  0999 V2000
   12.4616    8.6700   19.4180 N   0  0  0  0  0  0  0  0  0  0  0  0
   11.8329   10.8148   18.6769 N   0  0  0  0  0  0  0  0  0  0  0  0
    6.1021    2.5564   21.0678 C   0  0  0  0  0  0  0  0  0  0  0  0
   10.9097   11.8051   18.4804 C   0  0  0  0  0  0  0  0  0  0  0  0
   11.2280   12.9135   17.5669 C   0  0  0  0  0  0  0  0  0  0  0  0
   12.3782    5.4231   20.7777 C   0  0  0  0  0  0  0  0  0  0  0  0
    7.7365    4.6508   21.6987 C   0  0  0  0  0  0  0  0  0  0  0  0
   13.0186   11.0102   18.0020 C   0  0  0  0  0  0  0  0  0  0  0  0
    8.6628    5.7088   21.8871 N   0  0  0  0  0  0  0  0  0  0  0  0
    5.6516    3.5258   21.9140 C   0  0  0  0  0  0  0  0  0  0  0  0
   11.5863    9.6815   19.4539 C   0  0  0  0  0  0  0  0  0  0  0  0
   12.9648    4.1543   20.9205 C   0  0  0  0  0  0  0  0  0  0  0  0
    8.2089    3.6265   20.8929 C   0  0  0  0  0  0  0  0  0  0  0  0
    7.3827    2.5724   20.5432 C   0  0  0  0  0  0  0  0  0  0  0  0
   11.1529    7.2750   20.8025 C   0  0  0  0  0  0  0  0  0  0  0  0
   10.2573    8.3215   20.9827 C   0  0  0  0  0  0  0  0  0  0  0  0
   11.1606    5.9378   21.2366 N   0  0  0  0  0  0  0  0  0  0  0  0
    9.8932   11.6736   19.0677 O   0  0  0  0  0  0  0  0  0  0  0  0
    6.4470    4.5850   22.2321 C   0  0  0  0  0  0  0  0  0  0  0  0
    8.4619    6.9895   22.2968 C   0  0  0  0  0  0  0  0  0  0  0  0
   12.2747    7.5102   20.0420 C   0  0  0  0  0  0  0  0  0  0  0  0
   14.2544    6.2142   19.4191 C   0  0  0  0  0  0  0  0  0  0  0  0
   13.0695    6.3705   20.0375 N   0  0  0  0  0  0  0  0  0  0  0  0
    9.1913    8.0876   21.8361 N   0  0  0  0  0  0  0  0  0  0  0  0
   10.4739    9.4813   20.2889 C   0  0  0  0  0  0  0  0  0  0  0  0
    7.5551    7.1270   23.1200 O   0  0  0  0  0  0  0  0  0  0  0  0
  1 11  4  0
  1 21  4  0
  2  4  1  0
  2  8  1  0
  2 11  1  0
  3 10  4  0
  3 14  4  0
  4  5  1  0
  4 18  2  0
  6 12  1  0
  6 17  4  0
  6 23  4  0
  7  9  1  0
  7 13  4  0
  7 19  4  0
  9 20  1  0
 10 19  4  0
 11 25  4  0
 13 14  4  0
 15 16  4  0
 15 17  4  0
 15 21  4  0
 16 24  1  0
 16 25  4  0
 20 24  1  0
 20 26  2  0
 21 23  4  0
 22 23  1  0
M  END
$$$$

 Created by Python create_sdf_string function

 26 28  0  0  0  0  0  0  0  0999 V2000
   12.4616    8.6700   19.4180 N   0  0  0  0  0  0  0  0  0  0  0  0
   11.8329   10.8148   18.6769 N   0  0  0  0  0  0  0  0  0  0  0  0
    6.1021    2.5564   21.0678 C   0  0  0  0  0  0  0  0  0  0  0  0
   10.9097   11.8051   18.4804 C   0  0  0  0  0  0  0  0  0  0  0  0
   11.2280   12.9135   17.5669 C   0  0  0  0  0  0  0  0  0  0  0  0
   12.3782    5.4231   20.7777 C   0  0  0  0  0  0  0  0  0  0  0  0
    7.7365    4.6508   21.6987 C   0  0  0  0  0  0  0  0  0  0  0  0
   13.0186   11.0102   18.0020 C   0  0  0  0  0  0  0  0  0  0  0  0
    8.6628    5.7088   21.8871 N   0  0  0  0  0  0  0  0  0  0  0  0
    5.6516    3.5258   21.9140 C   0  0  0  0  0  0  0  0  0  0  0  0
   11.5863    9.6815   19.4539 C   0  0  0  0  0  0  0  0  0  0  0  0
   12.9648    4.1543   20.9205 C   0  0  0  0  0  0  0  0  0  0  0  0
    8.2089    3.6265   20.8929 C   0  0  0  0  0  0  0  0  0  0  0  0
    7.3827    2.5724   20.5432 C   0  0  0  0  0  0  0  0  0  0  0  0
   11.1529    7.2750   20.8025 C   0  0  0  0  0  0  0  0  0  0  0  0
   10.2573    8.3215   20.9827 C   0  0  0  0  0  0  0  0  0  0  0  0
   11.1606    5.9378   21.2366 N   0  0  0  0  0  0  0  0  0  0  0  0
    9.8932   11.6736   19.0677 O   0  0  0  0  0  0  0  0  0  0  0  0
    6.4470    4.5850   22.2321 C   0  0  0  0  0  0  0  0  0  0  0  0
    8.4619    6.9895   22.2968 C   0  0  0  0  0  0  0  0  0  0  0  0
   12.2747    7.5102   20.0420 C   0  0  0  0  0  0  0  0  0  0  0  0
   14.2544    6.2142   19.4191 C   0  0  0  0  0  0  0  0  0  0  0  0
   13.0695    6.3705   20.0375 N   0  0  0  0  0  0  0  0  0  0  0  0
    9.1913    8.0876   21.8361 N   0  0  0  0  0  0  0  0  0  0  0  0
   10.4739    9.4813   20.2889 C   0  0  0  0  0  0  0  0  0  0  0  0
    7.5551    7.1270   23.1200 O   0  0  0  0  0  0  0  0  0  0  0  0
  1 11  4  0
  1 21  4  0
  2  4  1  0
  2  8  1  0
  2 11  1  0
  3 10  4  0
  3 14  4  0
  4  5  1  0
  4 18  2  0
  6 12  1  0
  6 17  4  0
  6 23  4  0
  7  9  1  0
  7 13  4  0
  7 19  4  0
  9 20  1  0
 10 19  4  0
 11 25  4  0
 13 14  4  0
 15 16  4  0
 15 17  4  0
 15 21  4  0
 16 24  1  0
 16 25  4  0
 20 24  1  0
 20 26  2  0
 21 23  4  0
 22 23  1  0
M  END
$$$$

 Created by Python create_sdf_string function

 26 28  0  0  0  0  0  0  0  0999 V2000
   12.4616    8.6700   19.4180 N   0  0  0  0  0  0  0  0  0  0  0  0
   11.8329   10.8148   18.6769 N   0  0  0  0  0  0  0  0  0  0  0  0
    6.1021    2.5564   21.0678 C   0  0  0  0  0  0  0  0  0  0  0  0
   10.9097   11.8051   18.4804 C   0  0  0  0  0  0  0  0  0  0  0  0
   11.2280   12.9135   17.5669 C   0  0  0  0  0  0  0  0  0  0  0  0
   12.3782    5.4231   20.7777 C   0  0  0  0  0  0  0  0  0  0  0  0
    7.7365    4.6508   21.6987 C   0  0  0  0  0  0  0  0  0  0  0  0
   13.0186   11.0102   18.0020 C   0  0  0  0  0  0  0  0  0  0  0  0
    8.6628    5.7088   21.8871 N   0  0  0  0  0  0  0  0  0  0  0  0
    5.6516    3.5258   21.9140 C   0  0  0  0  0  0  0  0  0  0  0  0
   11.5863    9.6815   19.4539 C   0  0  0  0  0  0  0  0  0  0  0  0
   12.9648    4.1543   20.9205 C   0  0  0  0  0  0  0  0  0  0  0  0
    8.2089    3.6265   20.8929 C   0  0  0  0  0  0  0  0  0  0  0  0
    7.3827    2.5724   20.5432 C   0  0  0  0  0  0  0  0  0  0  0  0
   11.1529    7.2750   20.8025 C   0  0  0  0  0  0  0  0  0  0  0  0
   10.2573    8.3215   20.9827 C   0  0  0  0  0  0  0  0  0  0  0  0
   11.1606    5.9378   21.2366 N   0  0  0  0  0  0  0  0  0  0  0  0
    9.8932   11.6736   19.0677 O   0  0  0  0  0  0  0  0  0  0  0  0
    6.4470    4.5850   22.2321 C   0  0  0  0  0  0  0  0  0  0  0  0
    8.4619    6.9895   22.2968 C   0  0  0  0  0  0  0  0  0  0  0  0
   12.2747    7.5102   20.0420 C   0  0  0  0  0  0  0  0  0  0  0  0
   14.2544    6.2142   19.4191 C   0  0  0  0  0  0  0  0  0  0  0  0
   13.0695    6.3705   20.0375 N   0  0  0  0  0  0  0  0  0  0  0  0
    9.1913    8.0876   21.8361 N   0  0  0  0  0  0  0  0  0  0  0  0
   10.4739    9.4813   20.2889 C   0  0  0  0  0  0  0  0  0  0  0  0
    7.5551    7.1270   23.1200 O   0  0  0  0  0  0  0  0  0  0  0  0
  1 11  4  0
  1 21  4  0
  2  4  1  0
  2  8  1  0
  2 11  1  0
  3 10  4  0
  3 14  4  0
  4  5  1  0
  4 18  2  0
  6 12  1  0
  6 17  4  0
  6 23  4  0
  7  9  1  0
  7 13  4  0
  7 19  4  0
  9 20  1  0
 10 19  4  0
 11 25  4  0
 13 14  4  0
 15 16  4  0
 15 17  4  0
 15 21  4  0
 16 24  1  0
 16 25  4  0
 20 24  1  0
 20 26  2  0
 21 23  4  0
 22 23  1  0
M  END
$$$$

 Created by Python create_sdf_string function

 26 28  0  0  0  0  0  0  0  0999 V2000
   12.4616    8.6700   19.4180 N   0  0  0  0  0  0  0  0  0  0  0  0
   11.8329   10.8148   18.6769 N   0  0  0  0  0  0  0  0  0  0  0  0
    6.1021    2.5564   21.0678 C   0  0  0  0  0  0  0  0  0  0  0  0
   10.9097   11.8051   18.4804 C   0  0  0  0  0  0  0  0  0  0  0  0
   11.2280   12.9135   17.5669 C   0  0  0  0  0  0  0  0  0  0  0  0
   12.3782    5.4231   20.7777 C   0  0  0  0  0  0  0  0  0  0  0  0
    7.7365    4.6508   21.6987 C   0  0  0  0  0  0  0  0  0  0  0  0
   13.0186   11.0102   18.0020 C   0  0  0  0  0  0  0  0  0  0  0  0
    8.6628    5.7088   21.8871 N   0  0  0  0  0  0  0  0  0  0  0  0
    5.6516    3.5258   21.9140 C   0  0  0  0  0  0  0  0  0  0  0  0
   11.5863    9.6815   19.4539 C   0  0  0  0  0  0  0  0  0  0  0  0
   12.9648    4.1543   20.9205 C   0  0  0  0  0  0  0  0  0  0  0  0
    8.2089    3.6265   20.8929 C   0  0  0  0  0  0  0  0  0  0  0  0
    7.3827    2.5724   20.5432 C   0  0  0  0  0  0  0  0  0  0  0  0
   11.1529    7.2750   20.8025 C   0  0  0  0  0  0  0  0  0  0  0  0
   10.2573    8.3215   20.9827 C   0  0  0  0  0  0  0  0  0  0  0  0
   11.1606    5.9378   21.2366 N   0  0  0  0  0  0  0  0  0  0  0  0
    9.8932   11.6736   19.0677 O   0  0  0  0  0  0  0  0  0  0  0  0
    6.4470    4.5850   22.2321 C   0  0  0  0  0  0  0  0  0  0  0  0
    8.4619    6.9895   22.2968 C   0  0  0  0  0  0  0  0  0  0  0  0
   12.2747    7.5102   20.0420 C   0  0  0  0  0  0  0  0  0  0  0  0
   14.2544    6.2142   19.4191 C   0  0  0  0  0  0  0  0  0  0  0  0
   13.0695    6.3705   20.0375 N   0  0  0  0  0  0  0  0  0  0  0  0
    9.1913    8.0876   21.8361 N   0  0  0  0  0  0  0  0  0  0  0  0
   10.4739    9.4813   20.2889 C   0  0  0  0  0  0  0  0  0  0  0  0
    7.5551    7.1270   23.1200 O   0  0  0  0  0  0  0  0  0  0  0  0
  1 11  4  0
  1 21  4  0
  2  4  1  0
  2  8  1  0
  2 11  1  0
  3 10  4  0
  3 14  4  0
  4  5  1  0
  4 18  2  0
  6 12  1  0
  6 17  4  0
  6 23  4  0
  7  9  1  0
  7 13  4  0
  7 19  4  0
  9 20  1  0
 10 19  4  0
 11 25  4  0
 13 14  4  0
 15 16  4  0
 15 17  4  0
 15 21  4  0
 16 24  1  0
 16 25  4  0
 20 24  1  0
 20 26  2  0
 21 23  4  0
 22 23  1  0
M  END
$$$$

 Created by Python create_sdf_string function

 26 28  0  0  0  0  0  0  0  0999 V2000
   12.4616    8.6700   19.4180 N   0  0  0  0  0  0  0  0  0  0  0  0
   11.8329   10.8148   18.6769 N   0  0  0  0  0  0  0  0  0  0  0  0
    6.1021    2.5564   21.0678 C   0  0  0  0  0  0  0  0  0  0  0  0
   10.9097   11.8051   18.4804 C   0  0  0  0  0  0  0  0  0  0  0  0
   11.2280   12.9135   17.5669 C   0  0  0  0  0  0  0  0  0  0  0  0
   12.3782    5.4231   20.7777 C   0  0  0  0  0  0  0  0  0  0  0  0
    7.7365    4.6508   21.6987 C   0  0  0  0  0  0  0  0  0  0  0  0
   13.0186   11.0102   18.0020 C   0  0  0  0  0  0  0  0  0  0  0  0
    8.6628    5.7088   21.8871 N   0  0  0  0  0  0  0  0  0  0  0  0
    5.6516    3.5258   21.9140 C   0  0  0  0  0  0  0  0  0  0  0  0
   11.5863    9.6815   19.4539 C   0  0  0  0  0  0  0  0  0  0  0  0
   12.9648    4.1543   20.9205 C   0  0  0  0  0  0  0  0  0  0  0  0
    8.2089    3.6265   20.8929 C   0  0  0  0  0  0  0  0  0  0  0  0
    7.3827    2.5724   20.5432 C   0  0  0  0  0  0  0  0  0  0  0  0
   11.1529    7.2750   20.8025 C   0  0  0  0  0  0  0  0  0  0  0  0
   10.2573    8.3215   20.9827 C   0  0  0  0  0  0  0  0  0  0  0  0
   11.1606    5.9378   21.2366 N   0  0  0  0  0  0  0  0  0  0  0  0
    9.8932   11.6736   19.0677 O   0  0  0  0  0  0  0  0  0  0  0  0
    6.4470    4.5850   22.2321 C   0  0  0  0  0  0  0  0  0  0  0  0
    8.4619    6.9895   22.2968 C   0  0  0  0  0  0  0  0  0  0  0  0
   12.2747    7.5102   20.0420 C   0  0  0  0  0  0  0  0  0  0  0  0
   14.2544    6.2142   19.4191 C   0  0  0  0  0  0  0  0  0  0  0  0
   13.0695    6.3705   20.0375 N   0  0  0  0  0  0  0  0  0  0  0  0
    9.1913    8.0876   21.8361 N   0  0  0  0  0  0  0  0  0  0  0  0
   10.4739    9.4813   20.2889 C   0  0  0  0  0  0  0  0  0  0  0  0
    7.5551    7.1270   23.1200 O   0  0  0  0  0  0  0  0  0  0  0  0
  1 11  4  0
  1 21  4  0
  2  4  1  0
  2  8  1  0
  2 11  1  0
  3 10  4  0
  3 14  4  0
  4  5  1  0
  4 18  2  0
  6 12  1  0
  6 17  4  0
  6 23  4  0
  7  9  1  0
  7 13  4  0
  7 19  4  0
  9 20  1  0
 10 19  4  0
 11 25  4  0
 13 14  4  0
 15 16  4  0
 15 17  4  0
 15 21  4  0
 16 24  1  0
 16 25  4  0
 20 24  1  0
 20 26  2  0
 21 23  4  0
 22 23  1  0
M  END
$$$$

 Created by Python create_sdf_string function

 26 28  0  0  0  0  0  0  0  0999 V2000
   12.4616    8.6700   19.4180 N   0  0  0  0  0  0  0  0  0  0  0  0
   11.8329   10.8148   18.6769 N   0  0  0  0  0  0  0  0  0  0  0  0
    6.1021    2.5564   21.0678 C   0  0  0  0  0  0  0  0  0  0  0  0
   10.9097   11.8051   18.4804 C   0  0  0  0  0  0  0  0  0  0  0  0
   11.2280   12.9135   17.5669 C   0  0  0  0  0  0  0  0  0  0  0  0
   12.3782    5.4231   20.7777 C   0  0  0  0  0  0  0  0  0  0  0  0
    7.7365    4.6508   21.6987 C   0  0  0  0  0  0  0  0  0  0  0  0
   13.0186   11.0102   18.0020 C   0  0  0  0  0  0  0  0  0  0  0  0
    8.6628    5.7088   21.8871 N   0  0  0  0  0  0  0  0  0  0  0  0
    5.6516    3.5258   21.9140 C   0  0  0  0  0  0  0  0  0  0  0  0
   11.5863    9.6815   19.4539 C   0  0  0  0  0  0  0  0  0  0  0  0
   12.9648    4.1543   20.9205 C   0  0  0  0  0  0  0  0  0  0  0  0
    8.2089    3.6265   20.8929 C   0  0  0  0  0  0  0  0  0  0  0  0
    7.3827    2.5724   20.5432 C   0  0  0  0  0  0  0  0  0  0  0  0
   11.1529    7.2750   20.8025 C   0  0  0  0  0  0  0  0  0  0  0  0
   10.2573    8.3215   20.9827 C   0  0  0  0  0  0  0  0  0  0  0  0
   11.1606    5.9378   21.2366 N   0  0  0  0  0  0  0  0  0  0  0  0
    9.8932   11.6736   19.0677 O   0  0  0  0  0  0  0  0  0  0  0  0
    6.4470    4.5850   22.2321 C   0  0  0  0  0  0  0  0  0  0  0  0
    8.4619    6.9895   22.2968 C   0  0  0  0  0  0  0  0  0  0  0  0
   12.2747    7.5102   20.0420 C   0  0  0  0  0  0  0  0  0  0  0  0
   14.2544    6.2142   19.4191 C   0  0  0  0  0  0  0  0  0  0  0  0
   13.0695    6.3705   20.0375 N   0  0  0  0  0  0  0  0  0  0  0  0
    9.1913    8.0876   21.8361 N   0  0  0  0  0  0  0  0  0  0  0  0
   10.4739    9.4813   20.2889 C   0  0  0  0  0  0  0  0  0  0  0  0
    7.5551    7.1270   23.1200 O   0  0  0  0  0  0  0  0  0  0  0  0
  1 11  4  0
  1 21  4  0
  2  4  1  0
  2  8  1  0
  2 11  1  0
  3 10  4  0
  3 14  4  0
  4  5  1  0
  4 18  2  0
  6 12  1  0
  6 17  4  0
  6 23  4  0
  7  9  1  0
  7 13  4  0
  7 19  4  0
  9 20  1  0
 10 19  4  0
 11 25  4  0
 13 14  4  0
 15 16  4  0
 15 17  4  0
 15 21  4  0
 16 24  1  0
 16 25  4  0
 20 24  1  0
 20 26  2  0
 21 23  4  0
 22 23  1  0
M  END
$$$$

 Created by Python create_sdf_string function

 26 28  0  0  0  0  0  0  0  0999 V2000
   12.4616    8.6700   19.4180 N   0  0  0  0  0  0  0  0  0  0  0  0
   11.8329   10.8148   18.6769 N   0  0  0  0  0  0  0  0  0  0  0  0
    6.1021    2.5564   21.0678 C   0  0  0  0  0  0  0  0  0  0  0  0
   10.9097   11.8051   18.4804 C   0  0  0  0  0  0  0  0  0  0  0  0
   11.2280   12.9135   17.5669 C   0  0  0  0  0  0  0  0  0  0  0  0
   12.3782    5.4231   20.7777 C   0  0  0  0  0  0  0  0  0  0  0  0
    7.7365    4.6508   21.6987 C   0  0  0  0  0  0  0  0  0  0  0  0
   13.0186   11.0102   18.0020 C   0  0  0  0  0  0  0  0  0  0  0  0
    8.6628    5.7088   21.8871 N   0  0  0  0  0  0  0  0  0  0  0  0
    5.6516    3.5258   21.9140 C   0  0  0  0  0  0  0  0  0  0  0  0
   11.5863    9.6815   19.4539 C   0  0  0  0  0  0  0  0  0  0  0  0
   12.9648    4.1543   20.9205 C   0  0  0  0  0  0  0  0  0  0  0  0
    8.2089    3.6265   20.8929 C   0  0  0  0  0  0  0  0  0  0  0  0
    7.3827    2.5724   20.5432 C   0  0  0  0  0  0  0  0  0  0  0  0
   11.1529    7.2750   20.8025 C   0  0  0  0  0  0  0  0  0  0  0  0
   10.2573    8.3215   20.9827 C   0  0  0  0  0  0  0  0  0  0  0  0
   11.1606    5.9378   21.2366 N   0  0  0  0  0  0  0  0  0  0  0  0
    9.8932   11.6736   19.0677 O   0  0  0  0  0  0  0  0  0  0  0  0
    6.4470    4.5850   22.2321 C   0  0  0  0  0  0  0  0  0  0  0  0
    8.4619    6.9895   22.2968 C   0  0  0  0  0  0  0  0  0  0  0  0
   12.2747    7.5102   20.0420 C   0  0  0  0  0  0  0  0  0  0  0  0
   14.2544    6.2142   19.4191 C   0  0  0  0  0  0  0  0  0  0  0  0
   13.0695    6.3705   20.0375 N   0  0  0  0  0  0  0  0  0  0  0  0
    9.1913    8.0876   21.8361 N   0  0  0  0  0  0  0  0  0  0  0  0
   10.4739    9.4813   20.2889 C   0  0  0  0  0  0  0  0  0  0  0  0
    7.5551    7.1270   23.1200 O   0  0  0  0  0  0  0  0  0  0  0  0
  1 11  4  0
  1 21  4  0
  2  4  1  0
  2  8  1  0
  2 11  1  0
  3 10  4  0
  3 14  4  0
  4  5  1  0
  4 18  2  0
  6 12  1  0
  6 17  4  0
  6 23  4  0
  7  9  1  0
  7 13  4  0
  7 19  4  0
  9 20  1  0
 10 19  4  0
 11 25  4  0
 13 14  4  0
 15 16  4  0
 15 17  4  0
 15 21  4  0
 16 24  1  0
 16 25  4  0
 20 24  1  0
 20 26  2  0
 21 23  4  0
 22 23  1  0
M  END
$$$$

 Created by Python create_sdf_string function

 26 28  0  0  0  0  0  0  0  0999 V2000
   12.4616    8.6700   19.4180 N   0  0  0  0  0  0  0  0  0  0  0  0
   11.8329   10.8148   18.6769 N   0  0  0  0  0  0  0  0  0  0  0  0
    6.1021    2.5564   21.0678 C   0  0  0  0  0  0  0  0  0  0  0  0
   10.9097   11.8051   18.4804 C   0  0  0  0  0  0  0  0  0  0  0  0
   11.2280   12.9135   17.5669 C   0  0  0  0  0  0  0  0  0  0  0  0
   12.3782    5.4231   20.7777 C   0  0  0  0  0  0  0  0  0  0  0  0
    7.7365    4.6508   21.6987 C   0  0  0  0  0  0  0  0  0  0  0  0
   13.0186   11.0102   18.0020 C   0  0  0  0  0  0  0  0  0  0  0  0
    8.6628    5.7088   21.8871 N   0  0  0  0  0  0  0  0  0  0  0  0
    5.6516    3.5258   21.9140 C   0  0  0  0  0  0  0  0  0  0  0  0
   11.5863    9.6815   19.4539 C   0  0  0  0  0  0  0  0  0  0  0  0
   12.9648    4.1543   20.9205 C   0  0  0  0  0  0  0  0  0  0  0  0
    8.2089    3.6265   20.8929 C   0  0  0  0  0  0  0  0  0  0  0  0
    7.3827    2.5724   20.5432 C   0  0  0  0  0  0  0  0  0  0  0  0
   11.1529    7.2750   20.8025 C   0  0  0  0  0  0  0  0  0  0  0  0
   10.2573    8.3215   20.9827 C   0  0  0  0  0  0  0  0  0  0  0  0
   11.1606    5.9378   21.2366 N   0  0  0  0  0  0  0  0  0  0  0  0
    9.8932   11.6736   19.0677 O   0  0  0  0  0  0  0  0  0  0  0  0
    6.4470    4.5850   22.2321 C   0  0  0  0  0  0  0  0  0  0  0  0
    8.4619    6.9895   22.2968 C   0  0  0  0  0  0  0  0  0  0  0  0
   12.2747    7.5102   20.0420 C   0  0  0  0  0  0  0  0  0  0  0  0
   14.2544    6.2142   19.4191 C   0  0  0  0  0  0  0  0  0  0  0  0
   13.0695    6.3705   20.0375 N   0  0  0  0  0  0  0  0  0  0  0  0
    9.1913    8.0876   21.8361 N   0  0  0  0  0  0  0  0  0  0  0  0
   10.4739    9.4813   20.2889 C   0  0  0  0  0  0  0  0  0  0  0  0
    7.5551    7.1270   23.1200 O   0  0  0  0  0  0  0  0  0  0  0  0
  1 11  4  0
  1 21  4  0
  2  4  1  0
  2  8  1  0
  2 11  1  0
  3 10  4  0
  3 14  4  0
  4  5  1  0
  4 18  2  0
  6 12  1  0
  6 17  4  0
  6 23  4  0
  7  9  1  0
  7 13  4  0
  7 19  4  0
  9 20  1  0
 10 19  4  0
 11 25  4  0
 13 14  4  0
 15 16  4  0
 15 17  4  0
 15 21  4  0
 16 24  1  0
 16 25  4  0
 20 24  1  0
 20 26  2  0
 21 23  4  0
 22 23  1  0
M  END
$$$$

 Created by Python create_sdf_string function

 26 28  0  0  0  0  0  0  0  0999 V2000
   12.4616    8.6700   19.4180 N   0  0  0  0  0  0  0  0  0  0  0  0
   11.8329   10.8148   18.6769 N   0  0  0  0  0  0  0  0  0  0  0  0
    6.1021    2.5564   21.0678 C   0  0  0  0  0  0  0  0  0  0  0  0
   10.9097   11.8051   18.4804 C   0  0  0  0  0  0  0  0  0  0  0  0
   11.2280   12.9135   17.5669 C   0  0  0  0  0  0  0  0  0  0  0  0
   12.3782    5.4231   20.7777 C   0  0  0  0  0  0  0  0  0  0  0  0
    7.7365    4.6508   21.6987 C   0  0  0  0  0  0  0  0  0  0  0  0
   13.0186   11.0102   18.0020 C   0  0  0  0  0  0  0  0  0  0  0  0
    8.6628    5.7088   21.8871 N   0  0  0  0  0  0  0  0  0  0  0  0
    5.6516    3.5258   21.9140 C   0  0  0  0  0  0  0  0  0  0  0  0
   11.5863    9.6815   19.4539 C   0  0  0  0  0  0  0  0  0  0  0  0
   12.9648    4.1543   20.9205 C   0  0  0  0  0  0  0  0  0  0  0  0
    8.2089    3.6265   20.8929 C   0  0  0  0  0  0  0  0  0  0  0  0
    7.3827    2.5724   20.5432 C   0  0  0  0  0  0  0  0  0  0  0  0
   11.1529    7.2750   20.8025 C   0  0  0  0  0  0  0  0  0  0  0  0
   10.2573    8.3215   20.9827 C   0  0  0  0  0  0  0  0  0  0  0  0
   11.1606    5.9378   21.2366 N   0  0  0  0  0  0  0  0  0  0  0  0
    9.8932   11.6736   19.0677 O   0  0  0  0  0  0  0  0  0  0  0  0
    6.4470    4.5850   22.2321 C   0  0  0  0  0  0  0  0  0  0  0  0
    8.4619    6.9895   22.2968 C   0  0  0  0  0  0  0  0  0  0  0  0
   12.2747    7.5102   20.0420 C   0  0  0  0  0  0  0  0  0  0  0  0
   14.2544    6.2142   19.4191 C   0  0  0  0  0  0  0  0  0  0  0  0
   13.0695    6.3705   20.0375 N   0  0  0  0  0  0  0  0  0  0  0  0
    9.1913    8.0876   21.8361 N   0  0  0  0  0  0  0  0  0  0  0  0
   10.4739    9.4813   20.2889 C   0  0  0  0  0  0  0  0  0  0  0  0
    7.5551    7.1270   23.1200 O   0  0  0  0  0  0  0  0  0  0  0  0
  1 11  4  0
  1 21  4  0
  2  4  1  0
  2  8  1  0
  2 11  1  0
  3 10  4  0
  3 14  4  0
  4  5  1  0
  4 18  2  0
  6 12  1  0
  6 17  4  0
  6 23  4  0
  7  9  1  0
  7 13  4  0
  7 19  4  0
  9 20  1  0
 10 19  4  0
 11 25  4  0
 13 14  4  0
 15 16  4  0
 15 17  4  0
 15 21  4  0
 16 24  1  0
 16 25  4  0
 20 24  1  0
 20 26  2  0
 21 23  4  0
 22 23  1  0
M  END
$$$$

 Created by Python create_sdf_string function

 26 28  0  0  0  0  0  0  0  0999 V2000
   12.4616    8.6700   19.4180 N   0  0  0  0  0  0  0  0  0  0  0  0
   11.8329   10.8148   18.6769 N   0  0  0  0  0  0  0  0  0  0  0  0
    6.1021    2.5564   21.0678 C   0  0  0  0  0  0  0  0  0  0  0  0
   10.9097   11.8051   18.4804 C   0  0  0  0  0  0  0  0  0  0  0  0
   11.2280   12.9135   17.5669 C   0  0  0  0  0  0  0  0  0  0  0  0
   12.3782    5.4231   20.7777 C   0  0  0  0  0  0  0  0  0  0  0  0
    7.7365    4.6508   21.6987 C   0  0  0  0  0  0  0  0  0  0  0  0
   13.0186   11.0102   18.0020 C   0  0  0  0  0  0  0  0  0  0  0  0
    8.6628    5.7088   21.8871 N   0  0  0  0  0  0  0  0  0  0  0  0
    5.6516    3.5258   21.9140 C   0  0  0  0  0  0  0  0  0  0  0  0
   11.5863    9.6815   19.4539 C   0  0  0  0  0  0  0  0  0  0  0  0
   12.9648    4.1543   20.9205 C   0  0  0  0  0  0  0  0  0  0  0  0
    8.2089    3.6265   20.8929 C   0  0  0  0  0  0  0  0  0  0  0  0
    7.3827    2.5724   20.5432 C   0  0  0  0  0  0  0  0  0  0  0  0
   11.1529    7.2750   20.8025 C   0  0  0  0  0  0  0  0  0  0  0  0
   10.2573    8.3215   20.9827 C   0  0  0  0  0  0  0  0  0  0  0  0
   11.1606    5.9378   21.2366 N   0  0  0  0  0  0  0  0  0  0  0  0
    9.8932   11.6736   19.0677 O   0  0  0  0  0  0  0  0  0  0  0  0
    6.4470    4.5850   22.2321 C   0  0  0  0  0  0  0  0  0  0  0  0
    8.4619    6.9895   22.2968 C   0  0  0  0  0  0  0  0  0  0  0  0
   12.2747    7.5102   20.0420 C   0  0  0  0  0  0  0  0  0  0  0  0
   14.2544    6.2142   19.4191 C   0  0  0  0  0  0  0  0  0  0  0  0
   13.0695    6.3705   20.0375 N   0  0  0  0  0  0  0  0  0  0  0  0
    9.1913    8.0876   21.8361 N   0  0  0  0  0  0  0  0  0  0  0  0
   10.4739    9.4813   20.2889 C   0  0  0  0  0  0  0  0  0  0  0  0
    7.5551    7.1270   23.1200 O   0  0  0  0  0  0  0  0  0  0  0  0
  1 11  4  0
  1 21  4  0
  2  4  1  0
  2  8  1  0
  2 11  1  0
  3 10  4  0
  3 14  4  0
  4  5  1  0
  4 18  2  0
  6 12  1  0
  6 17  4  0
  6 23  4  0
  7  9  1  0
  7 13  4  0
  7 19  4  0
  9 20  1  0
 10 19  4  0
 11 25  4  0
 13 14  4  0
 15 16  4  0
 15 17  4  0
 15 21  4  0
 16 24  1  0
 16 25  4  0
 20 24  1  0
 20 26  2  0
 21 23  4  0
 22 23  1  0
M  END
$$$$

 Created by Python create_sdf_string function

 26 28  0  0  0  0  0  0  0  0999 V2000
   12.4616    8.6700   19.4180 N   0  0  0  0  0  0  0  0  0  0  0  0
   11.8329   10.8148   18.6769 N   0  0  0  0  0  0  0  0  0  0  0  0
    6.1021    2.5564   21.0678 C   0  0  0  0  0  0  0  0  0  0  0  0
   10.9097   11.8051   18.4804 C   0  0  0  0  0  0  0  0  0  0  0  0
   11.2280   12.9135   17.5669 C   0  0  0  0  0  0  0  0  0  0  0  0
   12.3782    5.4231   20.7777 C   0  0  0  0  0  0  0  0  0  0  0  0
    7.7365    4.6508   21.6987 C   0  0  0  0  0  0  0  0  0  0  0  0
   13.0186   11.0102   18.0020 C   0  0  0  0  0  0  0  0  0  0  0  0
    8.6628    5.7088   21.8871 N   0  0  0  0  0  0  0  0  0  0  0  0
    5.6516    3.5258   21.9140 C   0  0  0  0  0  0  0  0  0  0  0  0
   11.5863    9.6815   19.4539 C   0  0  0  0  0  0  0  0  0  0  0  0
   12.9648    4.1543   20.9205 C   0  0  0  0  0  0  0  0  0  0  0  0
    8.2089    3.6265   20.8929 C   0  0  0  0  0  0  0  0  0  0  0  0
    7.3827    2.5724   20.5432 C   0  0  0  0  0  0  0  0  0  0  0  0
   11.1529    7.2750   20.8025 C   0  0  0  0  0  0  0  0  0  0  0  0
   10.2573    8.3215   20.9827 C   0  0  0  0  0  0  0  0  0  0  0  0
   11.1606    5.9378   21.2366 N   0  0  0  0  0  0  0  0  0  0  0  0
    9.8932   11.6736   19.0677 O   0  0  0  0  0  0  0  0  0  0  0  0
    6.4470    4.5850   22.2321 C   0  0  0  0  0  0  0  0  0  0  0  0
    8.4619    6.9895   22.2968 C   0  0  0  0  0  0  0  0  0  0  0  0
   12.2747    7.5102   20.0420 C   0  0  0  0  0  0  0  0  0  0  0  0
   14.2544    6.2142   19.4191 C   0  0  0  0  0  0  0  0  0  0  0  0
   13.0695    6.3705   20.0375 N   0  0  0  0  0  0  0  0  0  0  0  0
    9.1913    8.0876   21.8361 N   0  0  0  0  0  0  0  0  0  0  0  0
   10.4739    9.4813   20.2889 C   0  0  0  0  0  0  0  0  0  0  0  0
    7.5551    7.1270   23.1200 O   0  0  0  0  0  0  0  0  0  0  0  0
  1 11  4  0
  1 21  4  0
  2  4  1  0
  2  8  1  0
  2 11  1  0
  3 10  4  0
  3 14  4  0
  4  5  1  0
  4 18  2  0
  6 12  1  0
  6 17  4  0
  6 23  4  0
  7  9  1  0
  7 13  4  0
  7 19  4  0
  9 20  1  0
 10 19  4  0
 11 25  4  0
 13 14  4  0
 15 16  4  0
 15 17  4  0
 15 21  4  0
 16 24  1  0
 16 25  4  0
 20 24  1  0
 20 26  2  0
 21 23  4  0
 22 23  1  0
M  END
$$$$

 Created by Python create_sdf_string function

 26 28  0  0  0  0  0  0  0  0999 V2000
   12.4616    8.6700   19.4180 N   0  0  0  0  0  0  0  0  0  0  0  0
   11.8329   10.8148   18.6769 N   0  0  0  0  0  0  0  0  0  0  0  0
    6.1021    2.5564   21.0678 C   0  0  0  0  0  0  0  0  0  0  0  0
   10.9097   11.8051   18.4804 C   0  0  0  0  0  0  0  0  0  0  0  0
   11.2280   12.9135   17.5669 C   0  0  0  0  0  0  0  0  0  0  0  0
   12.3782    5.4231   20.7777 C   0  0  0  0  0  0  0  0  0  0  0  0
    7.7365    4.6508   21.6987 C   0  0  0  0  0  0  0  0  0  0  0  0
   13.0186   11.0102   18.0020 C   0  0  0  0  0  0  0  0  0  0  0  0
    8.6628    5.7088   21.8871 N   0  0  0  0  0  0  0  0  0  0  0  0
    5.6516    3.5258   21.9140 C   0  0  0  0  0  0  0  0  0  0  0  0
   11.5863    9.6815   19.4539 C   0  0  0  0  0  0  0  0  0  0  0  0
   12.9648    4.1543   20.9205 C   0  0  0  0  0  0  0  0  0  0  0  0
    8.2089    3.6265   20.8929 C   0  0  0  0  0  0  0  0  0  0  0  0
    7.3827    2.5724   20.5432 C   0  0  0  0  0  0  0  0  0  0  0  0
   11.1529    7.2750   20.8025 C   0  0  0  0  0  0  0  0  0  0  0  0
   10.2573    8.3215   20.9827 C   0  0  0  0  0  0  0  0  0  0  0  0
   11.1606    5.9378   21.2366 N   0  0  0  0  0  0  0  0  0  0  0  0
    9.8932   11.6736   19.0677 O   0  0  0  0  0  0  0  0  0  0  0  0
    6.4470    4.5850   22.2321 C   0  0  0  0  0  0  0  0  0  0  0  0
    8.4619    6.9895   22.2968 C   0  0  0  0  0  0  0  0  0  0  0  0
   12.2747    7.5102   20.0420 C   0  0  0  0  0  0  0  0  0  0  0  0
   14.2544    6.2142   19.4191 C   0  0  0  0  0  0  0  0  0  0  0  0
   13.0695    6.3705   20.0375 N   0  0  0  0  0  0  0  0  0  0  0  0
    9.1913    8.0876   21.8361 N   0  0  0  0  0  0  0  0  0  0  0  0
   10.4739    9.4813   20.2889 C   0  0  0  0  0  0  0  0  0  0  0  0
    7.5551    7.1270   23.1200 O   0  0  0  0  0  0  0  0  0  0  0  0
  1 11  4  0
  1 21  4  0
  2  4  1  0
  2  8  1  0
  2 11  1  0
  3 10  4  0
  3 14  4  0
  4  5  1  0
  4 18  2  0
  6 12  1  0
  6 17  4  0
  6 23  4  0
  7  9  1  0
  7 13  4  0
  7 19  4  0
  9 20  1  0
 10 19  4  0
 11 25  4  0
 13 14  4  0
 15 16  4  0
 15 17  4  0
 15 21  4  0
 16 24  1  0
 16 25  4  0
 20 24  1  0
 20 26  2  0
 21 23  4  0
 22 23  1  0
M  END
$$$$

 Created by Python create_sdf_string function

 26 28  0  0  0  0  0  0  0  0999 V2000
   12.4616    8.6700   19.4180 N   0  0  0  0  0  0  0  0  0  0  0  0
   11.8329   10.8148   18.6769 N   0  0  0  0  0  0  0  0  0  0  0  0
    6.1021    2.5564   21.0678 C   0  0  0  0  0  0  0  0  0  0  0  0
   10.9097   11.8051   18.4804 C   0  0  0  0  0  0  0  0  0  0  0  0
   11.2280   12.9135   17.5669 C   0  0  0  0  0  0  0  0  0  0  0  0
   12.3782    5.4231   20.7777 C   0  0  0  0  0  0  0  0  0  0  0  0
    7.7365    4.6508   21.6987 C   0  0  0  0  0  0  0  0  0  0  0  0
   13.0186   11.0102   18.0020 C   0  0  0  0  0  0  0  0  0  0  0  0
    8.6628    5.7088   21.8871 N   0  0  0  0  0  0  0  0  0  0  0  0
    5.6516    3.5258   21.9140 C   0  0  0  0  0  0  0  0  0  0  0  0
   11.5863    9.6815   19.4539 C   0  0  0  0  0  0  0  0  0  0  0  0
   12.9648    4.1543   20.9205 C   0  0  0  0  0  0  0  0  0  0  0  0
    8.2089    3.6265   20.8929 C   0  0  0  0  0  0  0  0  0  0  0  0
    7.3827    2.5724   20.5432 C   0  0  0  0  0  0  0  0  0  0  0  0
   11.1529    7.2750   20.8025 C   0  0  0  0  0  0  0  0  0  0  0  0
   10.2573    8.3215   20.9827 C   0  0  0  0  0  0  0  0  0  0  0  0
   11.1606    5.9378   21.2366 N   0  0  0  0  0  0  0  0  0  0  0  0
    9.8932   11.6736   19.0677 O   0  0  0  0  0  0  0  0  0  0  0  0
    6.4470    4.5850   22.2321 C   0  0  0  0  0  0  0  0  0  0  0  0
    8.4619    6.9895   22.2968 C   0  0  0  0  0  0  0  0  0  0  0  0
   12.2747    7.5102   20.0420 C   0  0  0  0  0  0  0  0  0  0  0  0
   14.2544    6.2142   19.4191 C   0  0  0  0  0  0  0  0  0  0  0  0
   13.0695    6.3705   20.0375 N   0  0  0  0  0  0  0  0  0  0  0  0
    9.1913    8.0876   21.8361 N   0  0  0  0  0  0  0  0  0  0  0  0
   10.4739    9.4813   20.2889 C   0  0  0  0  0  0  0  0  0  0  0  0
    7.5551    7.1270   23.1200 O   0  0  0  0  0  0  0  0  0  0  0  0
  1 11  4  0
  1 21  4  0
  2  4  1  0
  2  8  1  0
  2 11  1  0
  3 10  4  0
  3 14  4  0
  4  5  1  0
  4 18  2  0
  6 12  1  0
  6 17  4  0
  6 23  4  0
  7  9  1  0
  7 13  4  0
  7 19  4  0
  9 20  1  0
 10 19  4  0
 11 25  4  0
 13 14  4  0
 15 16  4  0
 15 17  4  0
 15 21  4  0
 16 24  1  0
 16 25  4  0
 20 24  1  0
 20 26  2  0
 21 23  4  0
 22 23  1  0
M  END
$$$$

 Created by Python create_sdf_string function

 26 28  0  0  0  0  0  0  0  0999 V2000
   12.4616    8.6700   19.4180 N   0  0  0  0  0  0  0  0  0  0  0  0
   11.8329   10.8148   18.6769 N   0  0  0  0  0  0  0  0  0  0  0  0
    6.1021    2.5564   21.0678 C   0  0  0  0  0  0  0  0  0  0  0  0
   10.9097   11.8051   18.4804 C   0  0  0  0  0  0  0  0  0  0  0  0
   11.2280   12.9135   17.5669 C   0  0  0  0  0  0  0  0  0  0  0  0
   12.3782    5.4231   20.7777 C   0  0  0  0  0  0  0  0  0  0  0  0
    7.7365    4.6508   21.6987 C   0  0  0  0  0  0  0  0  0  0  0  0
   13.0186   11.0102   18.0020 C   0  0  0  0  0  0  0  0  0  0  0  0
    8.6628    5.7088   21.8871 N   0  0  0  0  0  0  0  0  0  0  0  0
    5.6516    3.5258   21.9140 C   0  0  0  0  0  0  0  0  0  0  0  0
   11.5863    9.6815   19.4539 C   0  0  0  0  0  0  0  0  0  0  0  0
   12.9648    4.1543   20.9205 C   0  0  0  0  0  0  0  0  0  0  0  0
    8.2089    3.6265   20.8929 C   0  0  0  0  0  0  0  0  0  0  0  0
    7.3827    2.5724   20.5432 C   0  0  0  0  0  0  0  0  0  0  0  0
   11.1529    7.2750   20.8025 C   0  0  0  0  0  0  0  0  0  0  0  0
   10.2573    8.3215   20.9827 C   0  0  0  0  0  0  0  0  0  0  0  0
   11.1606    5.9378   21.2366 N   0  0  0  0  0  0  0  0  0  0  0  0
    9.8932   11.6736   19.0677 O   0  0  0  0  0  0  0  0  0  0  0  0
    6.4470    4.5850   22.2321 C   0  0  0  0  0  0  0  0  0  0  0  0
    8.4619    6.9895   22.2968 C   0  0  0  0  0  0  0  0  0  0  0  0
   12.2747    7.5102   20.0420 C   0  0  0  0  0  0  0  0  0  0  0  0
   14.2544    6.2142   19.4191 C   0  0  0  0  0  0  0  0  0  0  0  0
   13.0695    6.3705   20.0375 N   0  0  0  0  0  0  0  0  0  0  0  0
    9.1913    8.0876   21.8361 N   0  0  0  0  0  0  0  0  0  0  0  0
   10.4739    9.4813   20.2889 C   0  0  0  0  0  0  0  0  0  0  0  0
    7.5551    7.1270   23.1200 O   0  0  0  0  0  0  0  0  0  0  0  0
  1 11  4  0
  1 21  4  0
  2  4  1  0
  2  8  1  0
  2 11  1  0
  3 10  4  0
  3 14  4  0
  4  5  1  0
  4 18  2  0
  6 12  1  0
  6 17  4  0
  6 23  4  0
  7  9  1  0
  7 13  4  0
  7 19  4  0
  9 20  1  0
 10 19  4  0
 11 25  4  0
 13 14  4  0
 15 16  4  0
 15 17  4  0
 15 21  4  0
 16 24  1  0
 16 25  4  0
 20 24  1  0
 20 26  2  0
 21 23  4  0
 22 23  1  0
M  END
$$$$

 Created by Python create_sdf_string function

 26 28  0  0  0  0  0  0  0  0999 V2000
   12.4616    8.6700   19.4180 N   0  0  0  0  0  0  0  0  0  0  0  0
   11.8329   10.8148   18.6769 N   0  0  0  0  0  0  0  0  0  0  0  0
    6.1021    2.5564   21.0678 C   0  0  0  0  0  0  0  0  0  0  0  0
   10.9097   11.8051   18.4804 C   0  0  0  0  0  0  0  0  0  0  0  0
   11.2280   12.9135   17.5669 C   0  0  0  0  0  0  0  0  0  0  0  0
   12.3782    5.4231   20.7777 C   0  0  0  0  0  0  0  0  0  0  0  0
    7.7365    4.6508   21.6987 C   0  0  0  0  0  0  0  0  0  0  0  0
   13.0186   11.0102   18.0020 C   0  0  0  0  0  0  0  0  0  0  0  0
    8.6628    5.7088   21.8871 N   0  0  0  0  0  0  0  0  0  0  0  0
    5.6516    3.5258   21.9140 C   0  0  0  0  0  0  0  0  0  0  0  0
   11.5863    9.6815   19.4539 C   0  0  0  0  0  0  0  0  0  0  0  0
   12.9648    4.1543   20.9205 C   0  0  0  0  0  0  0  0  0  0  0  0
    8.2089    3.6265   20.8929 C   0  0  0  0  0  0  0  0  0  0  0  0
    7.3827    2.5724   20.5432 C   0  0  0  0  0  0  0  0  0  0  0  0
   11.1529    7.2750   20.8025 C   0  0  0  0  0  0  0  0  0  0  0  0
   10.2573    8.3215   20.9827 C   0  0  0  0  0  0  0  0  0  0  0  0
   11.1606    5.9378   21.2366 N   0  0  0  0  0  0  0  0  0  0  0  0
    9.8932   11.6736   19.0677 O   0  0  0  0  0  0  0  0  0  0  0  0
    6.4470    4.5850   22.2321 C   0  0  0  0  0  0  0  0  0  0  0  0
    8.4619    6.9895   22.2968 C   0  0  0  0  0  0  0  0  0  0  0  0
   12.2747    7.5102   20.0420 C   0  0  0  0  0  0  0  0  0  0  0  0
   14.2544    6.2142   19.4191 C   0  0  0  0  0  0  0  0  0  0  0  0
   13.0695    6.3705   20.0375 N   0  0  0  0  0  0  0  0  0  0  0  0
    9.1913    8.0876   21.8361 N   0  0  0  0  0  0  0  0  0  0  0  0
   10.4739    9.4813   20.2889 C   0  0  0  0  0  0  0  0  0  0  0  0
    7.5551    7.1270   23.1200 O   0  0  0  0  0  0  0  0  0  0  0  0
  1 11  4  0
  1 21  4  0
  2  4  1  0
  2  8  1  0
  2 11  1  0
  3 10  4  0
  3 14  4  0
  4  5  1  0
  4 18  2  0
  6 12  1  0
  6 17  4  0
  6 23  4  0
  7  9  1  0
  7 13  4  0
  7 19  4  0
  9 20  1  0
 10 19  4  0
 11 25  4  0
 13 14  4  0
 15 16  4  0
 15 17  4  0
 15 21  4  0
 16 24  1  0
 16 25  4  0
 20 24  1  0
 20 26  2  0
 21 23  4  0
 22 23  1  0
M  END
$$$$

 Created by Python create_sdf_string function

 26 28  0  0  0  0  0  0  0  0999 V2000
   12.4616    8.6700   19.4180 N   0  0  0  0  0  0  0  0  0  0  0  0
   11.8329   10.8148   18.6769 N   0  0  0  0  0  0  0  0  0  0  0  0
    6.1021    2.5564   21.0678 C   0  0  0  0  0  0  0  0  0  0  0  0
   10.9097   11.8051   18.4804 C   0  0  0  0  0  0  0  0  0  0  0  0
   11.2280   12.9135   17.5669 C   0  0  0  0  0  0  0  0  0  0  0  0
   12.3782    5.4231   20.7777 C   0  0  0  0  0  0  0  0  0  0  0  0
    7.7365    4.6508   21.6987 C   0  0  0  0  0  0  0  0  0  0  0  0
   13.0186   11.0102   18.0020 C   0  0  0  0  0  0  0  0  0  0  0  0
    8.6628    5.7088   21.8871 N   0  0  0  0  0  0  0  0  0  0  0  0
    5.6516    3.5258   21.9140 C   0  0  0  0  0  0  0  0  0  0  0  0
   11.5863    9.6815   19.4539 C   0  0  0  0  0  0  0  0  0  0  0  0
   12.9648    4.1543   20.9205 C   0  0  0  0  0  0  0  0  0  0  0  0
    8.2089    3.6265   20.8929 C   0  0  0  0  0  0  0  0  0  0  0  0
    7.3827    2.5724   20.5432 C   0  0  0  0  0  0  0  0  0  0  0  0
   11.1529    7.2750   20.8025 C   0  0  0  0  0  0  0  0  0  0  0  0
   10.2573    8.3215   20.9827 C   0  0  0  0  0  0  0  0  0  0  0  0
   11.1606    5.9378   21.2366 N   0  0  0  0  0  0  0  0  0  0  0  0
    9.8932   11.6736   19.0677 O   0  0  0  0  0  0  0  0  0  0  0  0
    6.4470    4.5850   22.2321 C   0  0  0  0  0  0  0  0  0  0  0  0
    8.4619    6.9895   22.2968 C   0  0  0  0  0  0  0  0  0  0  0  0
   12.2747    7.5102   20.0420 C   0  0  0  0  0  0  0  0  0  0  0  0
   14.2544    6.2142   19.4191 C   0  0  0  0  0  0  0  0  0  0  0  0
   13.0695    6.3705   20.0375 N   0  0  0  0  0  0  0  0  0  0  0  0
    9.1913    8.0876   21.8361 N   0  0  0  0  0  0  0  0  0  0  0  0
   10.4739    9.4813   20.2889 C   0  0  0  0  0  0  0  0  0  0  0  0
    7.5551    7.1270   23.1200 O   0  0  0  0  0  0  0  0  0  0  0  0
  1 11  4  0
  1 21  4  0
  2  4  1  0
  2  8  1  0
  2 11  1  0
  3 10  4  0
  3 14  4  0
  4  5  1  0
  4 18  2  0
  6 12  1  0
  6 17  4  0
  6 23  4  0
  7  9  1  0
  7 13  4  0
  7 19  4  0
  9 20  1  0
 10 19  4  0
 11 25  4  0
 13 14  4  0
 15 16  4  0
 15 17  4  0
 15 21  4  0
 16 24  1  0
 16 25  4  0
 20 24  1  0
 20 26  2  0
 21 23  4  0
 22 23  1  0
M  END
$$$$

 Created by Python create_sdf_string function

 26 28  0  0  0  0  0  0  0  0999 V2000
   12.4616    8.6700   19.4180 N   0  0  0  0  0  0  0  0  0  0  0  0
   11.8329   10.8148   18.6769 N   0  0  0  0  0  0  0  0  0  0  0  0
    6.1021    2.5564   21.0678 C   0  0  0  0  0  0  0  0  0  0  0  0
   10.9097   11.8051   18.4804 C   0  0  0  0  0  0  0  0  0  0  0  0
   11.2280   12.9135   17.5669 C   0  0  0  0  0  0  0  0  0  0  0  0
   12.3782    5.4231   20.7777 C   0  0  0  0  0  0  0  0  0  0  0  0
    7.7365    4.6508   21.6987 C   0  0  0  0  0  0  0  0  0  0  0  0
   13.0186   11.0102   18.0020 C   0  0  0  0  0  0  0  0  0  0  0  0
    8.6628    5.7088   21.8871 N   0  0  0  0  0  0  0  0  0  0  0  0
    5.6516    3.5258   21.9140 C   0  0  0  0  0  0  0  0  0  0  0  0
   11.5863    9.6815   19.4539 C   0  0  0  0  0  0  0  0  0  0  0  0
   12.9648    4.1543   20.9205 C   0  0  0  0  0  0  0  0  0  0  0  0
    8.2089    3.6265   20.8929 C   0  0  0  0  0  0  0  0  0  0  0  0
    7.3827    2.5724   20.5432 C   0  0  0  0  0  0  0  0  0  0  0  0
   11.1529    7.2750   20.8025 C   0  0  0  0  0  0  0  0  0  0  0  0
   10.2573    8.3215   20.9827 C   0  0  0  0  0  0  0  0  0  0  0  0
   11.1606    5.9378   21.2366 N   0  0  0  0  0  0  0  0  0  0  0  0
    9.8932   11.6736   19.0677 O   0  0  0  0  0  0  0  0  0  0  0  0
    6.4470    4.5850   22.2321 C   0  0  0  0  0  0  0  0  0  0  0  0
    8.4619    6.9895   22.2968 C   0  0  0  0  0  0  0  0  0  0  0  0
   12.2747    7.5102   20.0420 C   0  0  0  0  0  0  0  0  0  0  0  0
   14.2544    6.2142   19.4191 C   0  0  0  0  0  0  0  0  0  0  0  0
   13.0695    6.3705   20.0375 N   0  0  0  0  0  0  0  0  0  0  0  0
    9.1913    8.0876   21.8361 N   0  0  0  0  0  0  0  0  0  0  0  0
   10.4739    9.4813   20.2889 C   0  0  0  0  0  0  0  0  0  0  0  0
    7.5551    7.1270   23.1200 O   0  0  0  0  0  0  0  0  0  0  0  0
  1 11  4  0
  1 21  4  0
  2  4  1  0
  2  8  1  0
  2 11  1  0
  3 10  4  0
  3 14  4  0
  4  5  1  0
  4 18  2  0
  6 12  1  0
  6 17  4  0
  6 23  4  0
  7  9  1  0
  7 13  4  0
  7 19  4  0
  9 20  1  0
 10 19  4  0
 11 25  4  0
 13 14  4  0
 15 16  4  0
 15 17  4  0
 15 21  4  0
 16 24  1  0
 16 25  4  0
 20 24  1  0
 20 26  2  0
 21 23  4  0
 22 23  1  0
M  END
$$$$

 Created by Python create_sdf_string function

 26 28  0  0  0  0  0  0  0  0999 V2000
   12.4616    8.6700   19.4180 N   0  0  0  0  0  0  0  0  0  0  0  0
   11.8329   10.8148   18.6769 N   0  0  0  0  0  0  0  0  0  0  0  0
    6.1021    2.5564   21.0678 C   0  0  0  0  0  0  0  0  0  0  0  0
   10.9097   11.8051   18.4804 C   0  0  0  0  0  0  0  0  0  0  0  0
   11.2280   12.9135   17.5669 C   0  0  0  0  0  0  0  0  0  0  0  0
   12.3782    5.4231   20.7777 C   0  0  0  0  0  0  0  0  0  0  0  0
    7.7365    4.6508   21.6987 C   0  0  0  0  0  0  0  0  0  0  0  0
   13.0186   11.0102   18.0020 C   0  0  0  0  0  0  0  0  0  0  0  0
    8.6628    5.7088   21.8871 N   0  0  0  0  0  0  0  0  0  0  0  0
    5.6516    3.5258   21.9140 C   0  0  0  0  0  0  0  0  0  0  0  0
   11.5863    9.6815   19.4539 C   0  0  0  0  0  0  0  0  0  0  0  0
   12.9648    4.1543   20.9205 C   0  0  0  0  0  0  0  0  0  0  0  0
    8.2089    3.6265   20.8929 C   0  0  0  0  0  0  0  0  0  0  0  0
    7.3827    2.5724   20.5432 C   0  0  0  0  0  0  0  0  0  0  0  0
   11.1529    7.2750   20.8025 C   0  0  0  0  0  0  0  0  0  0  0  0
   10.2573    8.3215   20.9827 C   0  0  0  0  0  0  0  0  0  0  0  0
   11.1606    5.9378   21.2366 N   0  0  0  0  0  0  0  0  0  0  0  0
    9.8932   11.6736   19.0677 O   0  0  0  0  0  0  0  0  0  0  0  0
    6.4470    4.5850   22.2321 C   0  0  0  0  0  0  0  0  0  0  0  0
    8.4619    6.9895   22.2968 C   0  0  0  0  0  0  0  0  0  0  0  0
   12.2747    7.5102   20.0420 C   0  0  0  0  0  0  0  0  0  0  0  0
   14.2544    6.2142   19.4191 C   0  0  0  0  0  0  0  0  0  0  0  0
   13.0695    6.3705   20.0375 N   0  0  0  0  0  0  0  0  0  0  0  0
    9.1913    8.0876   21.8361 N   0  0  0  0  0  0  0  0  0  0  0  0
   10.4739    9.4813   20.2889 C   0  0  0  0  0  0  0  0  0  0  0  0
    7.5551    7.1270   23.1200 O   0  0  0  0  0  0  0  0  0  0  0  0
  1 11  4  0
  1 21  4  0
  2  4  1  0
  2  8  1  0
  2 11  1  0
  3 10  4  0
  3 14  4  0
  4  5  1  0
  4 18  2  0
  6 12  1  0
  6 17  4  0
  6 23  4  0
  7  9  1  0
  7 13  4  0
  7 19  4  0
  9 20  1  0
 10 19  4  0
 11 25  4  0
 13 14  4  0
 15 16  4  0
 15 17  4  0
 15 21  4  0
 16 24  1  0
 16 25  4  0
 20 24  1  0
 20 26  2  0
 21 23  4  0
 22 23  1  0
M  END
$$$$

 Created by Python create_sdf_string function

 26 28  0  0  0  0  0  0  0  0999 V2000
   12.4616    8.6700   19.4180 N   0  0  0  0  0  0  0  0  0  0  0  0
   11.8329   10.8148   18.6769 N   0  0  0  0  0  0  0  0  0  0  0  0
    6.1021    2.5564   21.0678 C   0  0  0  0  0  0  0  0  0  0  0  0
   10.9097   11.8051   18.4804 C   0  0  0  0  0  0  0  0  0  0  0  0
   11.2280   12.9135   17.5669 C   0  0  0  0  0  0  0  0  0  0  0  0
   12.3782    5.4231   20.7777 C   0  0  0  0  0  0  0  0  0  0  0  0
    7.7365    4.6508   21.6987 C   0  0  0  0  0  0  0  0  0  0  0  0
   13.0186   11.0102   18.0020 C   0  0  0  0  0  0  0  0  0  0  0  0
    8.6628    5.7088   21.8871 N   0  0  0  0  0  0  0  0  0  0  0  0
    5.6516    3.5258   21.9140 C   0  0  0  0  0  0  0  0  0  0  0  0
   11.5863    9.6815   19.4539 C   0  0  0  0  0  0  0  0  0  0  0  0
   12.9648    4.1543   20.9205 C   0  0  0  0  0  0  0  0  0  0  0  0
    8.2089    3.6265   20.8929 C   0  0  0  0  0  0  0  0  0  0  0  0
    7.3827    2.5724   20.5432 C   0  0  0  0  0  0  0  0  0  0  0  0
   11.1529    7.2750   20.8025 C   0  0  0  0  0  0  0  0  0  0  0  0
   10.2573    8.3215   20.9827 C   0  0  0  0  0  0  0  0  0  0  0  0
   11.1606    5.9378   21.2366 N   0  0  0  0  0  0  0  0  0  0  0  0
    9.8932   11.6736   19.0677 O   0  0  0  0  0  0  0  0  0  0  0  0
    6.4470    4.5850   22.2321 C   0  0  0  0  0  0  0  0  0  0  0  0
    8.4619    6.9895   22.2968 C   0  0  0  0  0  0  0  0  0  0  0  0
   12.2747    7.5102   20.0420 C   0  0  0  0  0  0  0  0  0  0  0  0
   14.2544    6.2142   19.4191 C   0  0  0  0  0  0  0  0  0  0  0  0
   13.0695    6.3705   20.0375 N   0  0  0  0  0  0  0  0  0  0  0  0
    9.1913    8.0876   21.8361 N   0  0  0  0  0  0  0  0  0  0  0  0
   10.4739    9.4813   20.2889 C   0  0  0  0  0  0  0  0  0  0  0  0
    7.5551    7.1270   23.1200 O   0  0  0  0  0  0  0  0  0  0  0  0
  1 11  4  0
  1 21  4  0
  2  4  1  0
  2  8  1  0
  2 11  1  0
  3 10  4  0
  3 14  4  0
  4  5  1  0
  4 18  2  0
  6 12  1  0
  6 17  4  0
  6 23  4  0
  7  9  1  0
  7 13  4  0
  7 19  4  0
  9 20  1  0
 10 19  4  0
 11 25  4  0
 13 14  4  0
 15 16  4  0
 15 17  4  0
 15 21  4  0
 16 24  1  0
 16 25  4  0
 20 24  1  0
 20 26  2  0
 21 23  4  0
 22 23  1  0
M  END
$$$$

 Created by Python create_sdf_string function

 26 28  0  0  0  0  0  0  0  0999 V2000
   12.4616    8.6700   19.4180 N   0  0  0  0  0  0  0  0  0  0  0  0
   11.8329   10.8148   18.6769 N   0  0  0  0  0  0  0  0  0  0  0  0
    6.1021    2.5564   21.0678 C   0  0  0  0  0  0  0  0  0  0  0  0
   10.9097   11.8051   18.4804 C   0  0  0  0  0  0  0  0  0  0  0  0
   11.2280   12.9135   17.5669 C   0  0  0  0  0  0  0  0  0  0  0  0
   12.3782    5.4231   20.7777 C   0  0  0  0  0  0  0  0  0  0  0  0
    7.7365    4.6508   21.6987 C   0  0  0  0  0  0  0  0  0  0  0  0
   13.0186   11.0102   18.0020 C   0  0  0  0  0  0  0  0  0  0  0  0
    8.6628    5.7088   21.8871 N   0  0  0  0  0  0  0  0  0  0  0  0
    5.6516    3.5258   21.9140 C   0  0  0  0  0  0  0  0  0  0  0  0
   11.5863    9.6815   19.4539 C   0  0  0  0  0  0  0  0  0  0  0  0
   12.9648    4.1543   20.9205 C   0  0  0  0  0  0  0  0  0  0  0  0
    8.2089    3.6265   20.8929 C   0  0  0  0  0  0  0  0  0  0  0  0
    7.3827    2.5724   20.5432 C   0  0  0  0  0  0  0  0  0  0  0  0
   11.1529    7.2750   20.8025 C   0  0  0  0  0  0  0  0  0  0  0  0
   10.2573    8.3215   20.9827 C   0  0  0  0  0  0  0  0  0  0  0  0
   11.1606    5.9378   21.2366 N   0  0  0  0  0  0  0  0  0  0  0  0
    9.8932   11.6736   19.0677 O   0  0  0  0  0  0  0  0  0  0  0  0
    6.4470    4.5850   22.2321 C   0  0  0  0  0  0  0  0  0  0  0  0
    8.4619    6.9895   22.2968 C   0  0  0  0  0  0  0  0  0  0  0  0
   12.2747    7.5102   20.0420 C   0  0  0  0  0  0  0  0  0  0  0  0
   14.2544    6.2142   19.4191 C   0  0  0  0  0  0  0  0  0  0  0  0
   13.0695    6.3705   20.0375 N   0  0  0  0  0  0  0  0  0  0  0  0
    9.1913    8.0876   21.8361 N   0  0  0  0  0  0  0  0  0  0  0  0
   10.4739    9.4813   20.2889 C   0  0  0  0  0  0  0  0  0  0  0  0
    7.5551    7.1270   23.1200 O   0  0  0  0  0  0  0  0  0  0  0  0
  1 11  4  0
  1 21  4  0
  2  4  1  0
  2  8  1  0
  2 11  1  0
  3 10  4  0
  3 14  4  0
  4  5  1  0
  4 18  2  0
  6 12  1  0
  6 17  4  0
  6 23  4  0
  7  9  1  0
  7 13  4  0
  7 19  4  0
  9 20  1  0
 10 19  4  0
 11 25  4  0
 13 14  4  0
 15 16  4  0
 15 17  4  0
 15 21  4  0
 16 24  1  0
 16 25  4  0
 20 24  1  0
 20 26  2  0
 21 23  4  0
 22 23  1  0
M  END
$$$$

 Created by Python create_sdf_string function

 26 28  0  0  0  0  0  0  0  0999 V2000
   12.4616    8.6700   19.4180 N   0  0  0  0  0  0  0  0  0  0  0  0
   11.8329   10.8148   18.6769 N   0  0  0  0  0  0  0  0  0  0  0  0
    6.1021    2.5564   21.0678 C   0  0  0  0  0  0  0  0  0  0  0  0
   10.9097   11.8051   18.4804 C   0  0  0  0  0  0  0  0  0  0  0  0
   11.2280   12.9135   17.5669 C   0  0  0  0  0  0  0  0  0  0  0  0
   12.3782    5.4231   20.7777 C   0  0  0  0  0  0  0  0  0  0  0  0
    7.7365    4.6508   21.6987 C   0  0  0  0  0  0  0  0  0  0  0  0
   13.0186   11.0102   18.0020 C   0  0  0  0  0  0  0  0  0  0  0  0
    8.6628    5.7088   21.8871 N   0  0  0  0  0  0  0  0  0  0  0  0
    5.6516    3.5258   21.9140 C   0  0  0  0  0  0  0  0  0  0  0  0
   11.5863    9.6815   19.4539 C   0  0  0  0  0  0  0  0  0  0  0  0
   12.9648    4.1543   20.9205 C   0  0  0  0  0  0  0  0  0  0  0  0
    8.2089    3.6265   20.8929 C   0  0  0  0  0  0  0  0  0  0  0  0
    7.3827    2.5724   20.5432 C   0  0  0  0  0  0  0  0  0  0  0  0
   11.1529    7.2750   20.8025 C   0  0  0  0  0  0  0  0  0  0  0  0
   10.2573    8.3215   20.9827 C   0  0  0  0  0  0  0  0  0  0  0  0
   11.1606    5.9378   21.2366 N   0  0  0  0  0  0  0  0  0  0  0  0
    9.8932   11.6736   19.0677 O   0  0  0  0  0  0  0  0  0  0  0  0
    6.4470    4.5850   22.2321 C   0  0  0  0  0  0  0  0  0  0  0  0
    8.4619    6.9895   22.2968 C   0  0  0  0  0  0  0  0  0  0  0  0
   12.2747    7.5102   20.0420 C   0  0  0  0  0  0  0  0  0  0  0  0
   14.2544    6.2142   19.4191 C   0  0  0  0  0  0  0  0  0  0  0  0
   13.0695    6.3705   20.0375 N   0  0  0  0  0  0  0  0  0  0  0  0
    9.1913    8.0876   21.8361 N   0  0  0  0  0  0  0  0  0  0  0  0
   10.4739    9.4813   20.2889 C   0  0  0  0  0  0  0  0  0  0  0  0
    7.5551    7.1270   23.1200 O   0  0  0  0  0  0  0  0  0  0  0  0
  1 11  4  0
  1 21  4  0
  2  4  1  0
  2  8  1  0
  2 11  1  0
  3 10  4  0
  3 14  4  0
  4  5  1  0
  4 18  2  0
  6 12  1  0
  6 17  4  0
  6 23  4  0
  7  9  1  0
  7 13  4  0
  7 19  4  0
  9 20  1  0
 10 19  4  0
 11 25  4  0
 13 14  4  0
 15 16  4  0
 15 17  4  0
 15 21  4  0
 16 24  1  0
 16 25  4  0
 20 24  1  0
 20 26  2  0
 21 23  4  0
 22 23  1  0
M  END
$$$$

 Created by Python create_sdf_string function

 26 28  0  0  0  0  0  0  0  0999 V2000
   12.4616    8.6700   19.4180 N   0  0  0  0  0  0  0  0  0  0  0  0
   11.8329   10.8148   18.6769 N   0  0  0  0  0  0  0  0  0  0  0  0
    6.1021    2.5564   21.0678 C   0  0  0  0  0  0  0  0  0  0  0  0
   10.9097   11.8051   18.4804 C   0  0  0  0  0  0  0  0  0  0  0  0
   11.2280   12.9135   17.5669 C   0  0  0  0  0  0  0  0  0  0  0  0
   12.3782    5.4231   20.7777 C   0  0  0  0  0  0  0  0  0  0  0  0
    7.7365    4.6508   21.6987 C   0  0  0  0  0  0  0  0  0  0  0  0
   13.0186   11.0102   18.0020 C   0  0  0  0  0  0  0  0  0  0  0  0
    8.6628    5.7088   21.8871 N   0  0  0  0  0  0  0  0  0  0  0  0
    5.6516    3.5258   21.9140 C   0  0  0  0  0  0  0  0  0  0  0  0
   11.5863    9.6815   19.4539 C   0  0  0  0  0  0  0  0  0  0  0  0
   12.9648    4.1543   20.9205 C   0  0  0  0  0  0  0  0  0  0  0  0
    8.2089    3.6265   20.8929 C   0  0  0  0  0  0  0  0  0  0  0  0
    7.3827    2.5724   20.5432 C   0  0  0  0  0  0  0  0  0  0  0  0
   11.1529    7.2750   20.8025 C   0  0  0  0  0  0  0  0  0  0  0  0
   10.2573    8.3215   20.9827 C   0  0  0  0  0  0  0  0  0  0  0  0
   11.1606    5.9378   21.2366 N   0  0  0  0  0  0  0  0  0  0  0  0
    9.8932   11.6736   19.0677 O   0  0  0  0  0  0  0  0  0  0  0  0
    6.4470    4.5850   22.2321 C   0  0  0  0  0  0  0  0  0  0  0  0
    8.4619    6.9895   22.2968 C   0  0  0  0  0  0  0  0  0  0  0  0
   12.2747    7.5102   20.0420 C   0  0  0  0  0  0  0  0  0  0  0  0
   14.2544    6.2142   19.4191 C   0  0  0  0  0  0  0  0  0  0  0  0
   13.0695    6.3705   20.0375 N   0  0  0  0  0  0  0  0  0  0  0  0
    9.1913    8.0876   21.8361 N   0  0  0  0  0  0  0  0  0  0  0  0
   10.4739    9.4813   20.2889 C   0  0  0  0  0  0  0  0  0  0  0  0
    7.5551    7.1270   23.1200 O   0  0  0  0  0  0  0  0  0  0  0  0
  1 11  4  0
  1 21  4  0
  2  4  1  0
  2  8  1  0
  2 11  1  0
  3 10  4  0
  3 14  4  0
  4  5  1  0
  4 18  2  0
  6 12  1  0
  6 17  4  0
  6 23  4  0
  7  9  1  0
  7 13  4  0
  7 19  4  0
  9 20  1  0
 10 19  4  0
 11 25  4  0
 13 14  4  0
 15 16  4  0
 15 17  4  0
 15 21  4  0
 16 24  1  0
 16 25  4  0
 20 24  1  0
 20 26  2  0
 21 23  4  0
 22 23  1  0
M  END
$$$$

 Created by Python create_sdf_string function

 26 28  0  0  0  0  0  0  0  0999 V2000
   12.4616    8.6700   19.4180 N   0  0  0  0  0  0  0  0  0  0  0  0
   11.8329   10.8148   18.6769 N   0  0  0  0  0  0  0  0  0  0  0  0
    6.1021    2.5564   21.0678 C   0  0  0  0  0  0  0  0  0  0  0  0
   10.9097   11.8051   18.4804 C   0  0  0  0  0  0  0  0  0  0  0  0
   11.2280   12.9135   17.5669 C   0  0  0  0  0  0  0  0  0  0  0  0
   12.3782    5.4231   20.7777 C   0  0  0  0  0  0  0  0  0  0  0  0
    7.7365    4.6508   21.6987 C   0  0  0  0  0  0  0  0  0  0  0  0
   13.0186   11.0102   18.0020 C   0  0  0  0  0  0  0  0  0  0  0  0
    8.6628    5.7088   21.8871 N   0  0  0  0  0  0  0  0  0  0  0  0
    5.6516    3.5258   21.9140 C   0  0  0  0  0  0  0  0  0  0  0  0
   11.5863    9.6815   19.4539 C   0  0  0  0  0  0  0  0  0  0  0  0
   12.9648    4.1543   20.9205 C   0  0  0  0  0  0  0  0  0  0  0  0
    8.2089    3.6265   20.8929 C   0  0  0  0  0  0  0  0  0  0  0  0
    7.3827    2.5724   20.5432 C   0  0  0  0  0  0  0  0  0  0  0  0
   11.1529    7.2750   20.8025 C   0  0  0  0  0  0  0  0  0  0  0  0
   10.2573    8.3215   20.9827 C   0  0  0  0  0  0  0  0  0  0  0  0
   11.1606    5.9378   21.2366 N   0  0  0  0  0  0  0  0  0  0  0  0
    9.8932   11.6736   19.0677 O   0  0  0  0  0  0  0  0  0  0  0  0
    6.4470    4.5850   22.2321 C   0  0  0  0  0  0  0  0  0  0  0  0
    8.4619    6.9895   22.2968 C   0  0  0  0  0  0  0  0  0  0  0  0
   12.2747    7.5102   20.0420 C   0  0  0  0  0  0  0  0  0  0  0  0
   14.2544    6.2142   19.4191 C   0  0  0  0  0  0  0  0  0  0  0  0
   13.0695    6.3705   20.0375 N   0  0  0  0  0  0  0  0  0  0  0  0
    9.1913    8.0876   21.8361 N   0  0  0  0  0  0  0  0  0  0  0  0
   10.4739    9.4813   20.2889 C   0  0  0  0  0  0  0  0  0  0  0  0
    7.5551    7.1270   23.1200 O   0  0  0  0  0  0  0  0  0  0  0  0
  1 11  4  0
  1 21  4  0
  2  4  1  0
  2  8  1  0
  2 11  1  0
  3 10  4  0
  3 14  4  0
  4  5  1  0
  4 18  2  0
  6 12  1  0
  6 17  4  0
  6 23  4  0
  7  9  1  0
  7 13  4  0
  7 19  4  0
  9 20  1  0
 10 19  4  0
 11 25  4  0
 13 14  4  0
 15 16  4  0
 15 17  4  0
 15 21  4  0
 16 24  1  0
 16 25  4  0
 20 24  1  0
 20 26  2  0
 21 23  4  0
 22 23  1  0
M  END
$$$$

 Created by Python create_sdf_string function

 26 28  0  0  0  0  0  0  0  0999 V2000
   12.4616    8.6700   19.4180 N   0  0  0  0  0  0  0  0  0  0  0  0
   11.8329   10.8148   18.6769 N   0  0  0  0  0  0  0  0  0  0  0  0
    6.1021    2.5564   21.0678 C   0  0  0  0  0  0  0  0  0  0  0  0
   10.9097   11.8051   18.4804 C   0  0  0  0  0  0  0  0  0  0  0  0
   11.2280   12.9135   17.5669 C   0  0  0  0  0  0  0  0  0  0  0  0
   12.3782    5.4231   20.7777 C   0  0  0  0  0  0  0  0  0  0  0  0
    7.7365    4.6508   21.6987 C   0  0  0  0  0  0  0  0  0  0  0  0
   13.0186   11.0102   18.0020 C   0  0  0  0  0  0  0  0  0  0  0  0
    8.6628    5.7088   21.8871 N   0  0  0  0  0  0  0  0  0  0  0  0
    5.6516    3.5258   21.9140 C   0  0  0  0  0  0  0  0  0  0  0  0
   11.5863    9.6815   19.4539 C   0  0  0  0  0  0  0  0  0  0  0  0
   12.9648    4.1543   20.9205 C   0  0  0  0  0  0  0  0  0  0  0  0
    8.2089    3.6265   20.8929 C   0  0  0  0  0  0  0  0  0  0  0  0
    7.3827    2.5724   20.5432 C   0  0  0  0  0  0  0  0  0  0  0  0
   11.1529    7.2750   20.8025 C   0  0  0  0  0  0  0  0  0  0  0  0
   10.2573    8.3215   20.9827 C   0  0  0  0  0  0  0  0  0  0  0  0
   11.1606    5.9378   21.2366 N   0  0  0  0  0  0  0  0  0  0  0  0
    9.8932   11.6736   19.0677 O   0  0  0  0  0  0  0  0  0  0  0  0
    6.4470    4.5850   22.2321 C   0  0  0  0  0  0  0  0  0  0  0  0
    8.4619    6.9895   22.2968 C   0  0  0  0  0  0  0  0  0  0  0  0
   12.2747    7.5102   20.0420 C   0  0  0  0  0  0  0  0  0  0  0  0
   14.2544    6.2142   19.4191 C   0  0  0  0  0  0  0  0  0  0  0  0
   13.0695    6.3705   20.0375 N   0  0  0  0  0  0  0  0  0  0  0  0
    9.1913    8.0876   21.8361 N   0  0  0  0  0  0  0  0  0  0  0  0
   10.4739    9.4813   20.2889 C   0  0  0  0  0  0  0  0  0  0  0  0
    7.5551    7.1270   23.1200 O   0  0  0  0  0  0  0  0  0  0  0  0
  1 11  4  0
  1 21  4  0
  2  4  1  0
  2  8  1  0
  2 11  1  0
  3 10  4  0
  3 14  4  0
  4  5  1  0
  4 18  2  0
  6 12  1  0
  6 17  4  0
  6 23  4  0
  7  9  1  0
  7 13  4  0
  7 19  4  0
  9 20  1  0
 10 19  4  0
 11 25  4  0
 13 14  4  0
 15 16  4  0
 15 17  4  0
 15 21  4  0
 16 24  1  0
 16 25  4  0
 20 24  1  0
 20 26  2  0
 21 23  4  0
 22 23  1  0
M  END
$$$$

 Created by Python create_sdf_string function

 26 28  0  0  0  0  0  0  0  0999 V2000
   12.4616    8.6700   19.4180 N   0  0  0  0  0  0  0  0  0  0  0  0
   11.8329   10.8148   18.6769 N   0  0  0  0  0  0  0  0  0  0  0  0
    6.1021    2.5564   21.0678 C   0  0  0  0  0  0  0  0  0  0  0  0
   10.9097   11.8051   18.4804 C   0  0  0  0  0  0  0  0  0  0  0  0
   11.2280   12.9135   17.5669 C   0  0  0  0  0  0  0  0  0  0  0  0
   12.3782    5.4231   20.7777 C   0  0  0  0  0  0  0  0  0  0  0  0
    7.7365    4.6508   21.6987 C   0  0  0  0  0  0  0  0  0  0  0  0
   13.0186   11.0102   18.0020 C   0  0  0  0  0  0  0  0  0  0  0  0
    8.6628    5.7088   21.8871 N   0  0  0  0  0  0  0  0  0  0  0  0
    5.6516    3.5258   21.9140 C   0  0  0  0  0  0  0  0  0  0  0  0
   11.5863    9.6815   19.4539 C   0  0  0  0  0  0  0  0  0  0  0  0
   12.9648    4.1543   20.9205 C   0  0  0  0  0  0  0  0  0  0  0  0
    8.2089    3.6265   20.8929 C   0  0  0  0  0  0  0  0  0  0  0  0
    7.3827    2.5724   20.5432 C   0  0  0  0  0  0  0  0  0  0  0  0
   11.1529    7.2750   20.8025 C   0  0  0  0  0  0  0  0  0  0  0  0
   10.2573    8.3215   20.9827 C   0  0  0  0  0  0  0  0  0  0  0  0
   11.1606    5.9378   21.2366 N   0  0  0  0  0  0  0  0  0  0  0  0
    9.8932   11.6736   19.0677 O   0  0  0  0  0  0  0  0  0  0  0  0
    6.4470    4.5850   22.2321 C   0  0  0  0  0  0  0  0  0  0  0  0
    8.4619    6.9895   22.2968 C   0  0  0  0  0  0  0  0  0  0  0  0
   12.2747    7.5102   20.0420 C   0  0  0  0  0  0  0  0  0  0  0  0
   14.2544    6.2142   19.4191 C   0  0  0  0  0  0  0  0  0  0  0  0
   13.0695    6.3705   20.0375 N   0  0  0  0  0  0  0  0  0  0  0  0
    9.1913    8.0876   21.8361 N   0  0  0  0  0  0  0  0  0  0  0  0
   10.4739    9.4813   20.2889 C   0  0  0  0  0  0  0  0  0  0  0  0
    7.5551    7.1270   23.1200 O   0  0  0  0  0  0  0  0  0  0  0  0
  1 11  4  0
  1 21  4  0
  2  4  1  0
  2  8  1  0
  2 11  1  0
  3 10  4  0
  3 14  4  0
  4  5  1  0
  4 18  2  0
  6 12  1  0
  6 17  4  0
  6 23  4  0
  7  9  1  0
  7 13  4  0
  7 19  4  0
  9 20  1  0
 10 19  4  0
 11 25  4  0
 13 14  4  0
 15 16  4  0
 15 17  4  0
 15 21  4  0
 16 24  1  0
 16 25  4  0
 20 24  1  0
 20 26  2  0
 21 23  4  0
 22 23  1  0
M  END
$$$$

 Created by Python create_sdf_string function

 26 28  0  0  0  0  0  0  0  0999 V2000
   12.4616    8.6700   19.4180 N   0  0  0  0  0  0  0  0  0  0  0  0
   11.8329   10.8148   18.6769 N   0  0  0  0  0  0  0  0  0  0  0  0
    6.1021    2.5564   21.0678 C   0  0  0  0  0  0  0  0  0  0  0  0
   10.9097   11.8051   18.4804 C   0  0  0  0  0  0  0  0  0  0  0  0
   11.2280   12.9135   17.5669 C   0  0  0  0  0  0  0  0  0  0  0  0
   12.3782    5.4231   20.7777 C   0  0  0  0  0  0  0  0  0  0  0  0
    7.7365    4.6508   21.6987 C   0  0  0  0  0  0  0  0  0  0  0  0
   13.0186   11.0102   18.0020 C   0  0  0  0  0  0  0  0  0  0  0  0
    8.6628    5.7088   21.8871 N   0  0  0  0  0  0  0  0  0  0  0  0
    5.6516    3.5258   21.9140 C   0  0  0  0  0  0  0  0  0  0  0  0
   11.5863    9.6815   19.4539 C   0  0  0  0  0  0  0  0  0  0  0  0
   12.9648    4.1543   20.9205 C   0  0  0  0  0  0  0  0  0  0  0  0
    8.2089    3.6265   20.8929 C   0  0  0  0  0  0  0  0  0  0  0  0
    7.3827    2.5724   20.5432 C   0  0  0  0  0  0  0  0  0  0  0  0
   11.1529    7.2750   20.8025 C   0  0  0  0  0  0  0  0  0  0  0  0
   10.2573    8.3215   20.9827 C   0  0  0  0  0  0  0  0  0  0  0  0
   11.1606    5.9378   21.2366 N   0  0  0  0  0  0  0  0  0  0  0  0
    9.8932   11.6736   19.0677 O   0  0  0  0  0  0  0  0  0  0  0  0
    6.4470    4.5850   22.2321 C   0  0  0  0  0  0  0  0  0  0  0  0
    8.4619    6.9895   22.2968 C   0  0  0  0  0  0  0  0  0  0  0  0
   12.2747    7.5102   20.0420 C   0  0  0  0  0  0  0  0  0  0  0  0
   14.2544    6.2142   19.4191 C   0  0  0  0  0  0  0  0  0  0  0  0
   13.0695    6.3705   20.0375 N   0  0  0  0  0  0  0  0  0  0  0  0
    9.1913    8.0876   21.8361 N   0  0  0  0  0  0  0  0  0  0  0  0
   10.4739    9.4813   20.2889 C   0  0  0  0  0  0  0  0  0  0  0  0
    7.5551    7.1270   23.1200 O   0  0  0  0  0  0  0  0  0  0  0  0
  1 11  4  0
  1 21  4  0
  2  4  1  0
  2  8  1  0
  2 11  1  0
  3 10  4  0
  3 14  4  0
  4  5  1  0
  4 18  2  0
  6 12  1  0
  6 17  4  0
  6 23  4  0
  7  9  1  0
  7 13  4  0
  7 19  4  0
  9 20  1  0
 10 19  4  0
 11 25  4  0
 13 14  4  0
 15 16  4  0
 15 17  4  0
 15 21  4  0
 16 24  1  0
 16 25  4  0
 20 24  1  0
 20 26  2  0
 21 23  4  0
 22 23  1  0
M  END
$$$$

 Created by Python create_sdf_string function

 26 28  0  0  0  0  0  0  0  0999 V2000
   12.4616    8.6700   19.4180 N   0  0  0  0  0  0  0  0  0  0  0  0
   11.8329   10.8148   18.6769 N   0  0  0  0  0  0  0  0  0  0  0  0
    6.1021    2.5564   21.0678 C   0  0  0  0  0  0  0  0  0  0  0  0
   10.9097   11.8051   18.4804 C   0  0  0  0  0  0  0  0  0  0  0  0
   11.2280   12.9135   17.5669 C   0  0  0  0  0  0  0  0  0  0  0  0
   12.3782    5.4231   20.7777 C   0  0  0  0  0  0  0  0  0  0  0  0
    7.7365    4.6508   21.6987 C   0  0  0  0  0  0  0  0  0  0  0  0
   13.0186   11.0102   18.0020 C   0  0  0  0  0  0  0  0  0  0  0  0
    8.6628    5.7088   21.8871 N   0  0  0  0  0  0  0  0  0  0  0  0
    5.6516    3.5258   21.9140 C   0  0  0  0  0  0  0  0  0  0  0  0
   11.5863    9.6815   19.4539 C   0  0  0  0  0  0  0  0  0  0  0  0
   12.9648    4.1543   20.9205 C   0  0  0  0  0  0  0  0  0  0  0  0
    8.2089    3.6265   20.8929 C   0  0  0  0  0  0  0  0  0  0  0  0
    7.3827    2.5724   20.5432 C   0  0  0  0  0  0  0  0  0  0  0  0
   11.1529    7.2750   20.8025 C   0  0  0  0  0  0  0  0  0  0  0  0
   10.2573    8.3215   20.9827 C   0  0  0  0  0  0  0  0  0  0  0  0
   11.1606    5.9378   21.2366 N   0  0  0  0  0  0  0  0  0  0  0  0
    9.8932   11.6736   19.0677 O   0  0  0  0  0  0  0  0  0  0  0  0
    6.4470    4.5850   22.2321 C   0  0  0  0  0  0  0  0  0  0  0  0
    8.4619    6.9895   22.2968 C   0  0  0  0  0  0  0  0  0  0  0  0
   12.2747    7.5102   20.0420 C   0  0  0  0  0  0  0  0  0  0  0  0
   14.2544    6.2142   19.4191 C   0  0  0  0  0  0  0  0  0  0  0  0
   13.0695    6.3705   20.0375 N   0  0  0  0  0  0  0  0  0  0  0  0
    9.1913    8.0876   21.8361 N   0  0  0  0  0  0  0  0  0  0  0  0
   10.4739    9.4813   20.2889 C   0  0  0  0  0  0  0  0  0  0  0  0
    7.5551    7.1270   23.1200 O   0  0  0  0  0  0  0  0  0  0  0  0
  1 11  4  0
  1 21  4  0
  2  4  1  0
  2  8  1  0
  2 11  1  0
  3 10  4  0
  3 14  4  0
  4  5  1  0
  4 18  2  0
  6 12  1  0
  6 17  4  0
  6 23  4  0
  7  9  1  0
  7 13  4  0
  7 19  4  0
  9 20  1  0
 10 19  4  0
 11 25  4  0
 13 14  4  0
 15 16  4  0
 15 17  4  0
 15 21  4  0
 16 24  1  0
 16 25  4  0
 20 24  1  0
 20 26  2  0
 21 23  4  0
 22 23  1  0
M  END
$$$$

 Created by Python create_sdf_string function

 26 28  0  0  0  0  0  0  0  0999 V2000
   12.4616    8.6700   19.4180 N   0  0  0  0  0  0  0  0  0  0  0  0
   11.8329   10.8148   18.6769 N   0  0  0  0  0  0  0  0  0  0  0  0
    6.1021    2.5564   21.0678 C   0  0  0  0  0  0  0  0  0  0  0  0
   10.9097   11.8051   18.4804 C   0  0  0  0  0  0  0  0  0  0  0  0
   11.2280   12.9135   17.5669 C   0  0  0  0  0  0  0  0  0  0  0  0
   12.3782    5.4231   20.7777 C   0  0  0  0  0  0  0  0  0  0  0  0
    7.7365    4.6508   21.6987 C   0  0  0  0  0  0  0  0  0  0  0  0
   13.0186   11.0102   18.0020 C   0  0  0  0  0  0  0  0  0  0  0  0
    8.6628    5.7088   21.8871 N   0  0  0  0  0  0  0  0  0  0  0  0
    5.6516    3.5258   21.9140 C   0  0  0  0  0  0  0  0  0  0  0  0
   11.5863    9.6815   19.4539 C   0  0  0  0  0  0  0  0  0  0  0  0
   12.9648    4.1543   20.9205 C   0  0  0  0  0  0  0  0  0  0  0  0
    8.2089    3.6265   20.8929 C   0  0  0  0  0  0  0  0  0  0  0  0
    7.3827    2.5724   20.5432 C   0  0  0  0  0  0  0  0  0  0  0  0
   11.1529    7.2750   20.8025 C   0  0  0  0  0  0  0  0  0  0  0  0
   10.2573    8.3215   20.9827 C   0  0  0  0  0  0  0  0  0  0  0  0
   11.1606    5.9378   21.2366 N   0  0  0  0  0  0  0  0  0  0  0  0
    9.8932   11.6736   19.0677 O   0  0  0  0  0  0  0  0  0  0  0  0
    6.4470    4.5850   22.2321 C   0  0  0  0  0  0  0  0  0  0  0  0
    8.4619    6.9895   22.2968 C   0  0  0  0  0  0  0  0  0  0  0  0
   12.2747    7.5102   20.0420 C   0  0  0  0  0  0  0  0  0  0  0  0
   14.2544    6.2142   19.4191 C   0  0  0  0  0  0  0  0  0  0  0  0
   13.0695    6.3705   20.0375 N   0  0  0  0  0  0  0  0  0  0  0  0
    9.1913    8.0876   21.8361 N   0  0  0  0  0  0  0  0  0  0  0  0
   10.4739    9.4813   20.2889 C   0  0  0  0  0  0  0  0  0  0  0  0
    7.5551    7.1270   23.1200 O   0  0  0  0  0  0  0  0  0  0  0  0
  1 11  4  0
  1 21  4  0
  2  4  1  0
  2  8  1  0
  2 11  1  0
  3 10  4  0
  3 14  4  0
  4  5  1  0
  4 18  2  0
  6 12  1  0
  6 17  4  0
  6 23  4  0
  7  9  1  0
  7 13  4  0
  7 19  4  0
  9 20  1  0
 10 19  4  0
 11 25  4  0
 13 14  4  0
 15 16  4  0
 15 17  4  0
 15 21  4  0
 16 24  1  0
 16 25  4  0
 20 24  1  0
 20 26  2  0
 21 23  4  0
 22 23  1  0
M  END
$$$$

 Created by Python create_sdf_string function

 26 28  0  0  0  0  0  0  0  0999 V2000
   12.4616    8.6700   19.4180 N   0  0  0  0  0  0  0  0  0  0  0  0
   11.8329   10.8148   18.6769 N   0  0  0  0  0  0  0  0  0  0  0  0
    6.1021    2.5564   21.0678 C   0  0  0  0  0  0  0  0  0  0  0  0
   10.9097   11.8051   18.4804 C   0  0  0  0  0  0  0  0  0  0  0  0
   11.2280   12.9135   17.5669 C   0  0  0  0  0  0  0  0  0  0  0  0
   12.3782    5.4231   20.7777 C   0  0  0  0  0  0  0  0  0  0  0  0
    7.7365    4.6508   21.6987 C   0  0  0  0  0  0  0  0  0  0  0  0
   13.0186   11.0102   18.0020 C   0  0  0  0  0  0  0  0  0  0  0  0
    8.6628    5.7088   21.8871 N   0  0  0  0  0  0  0  0  0  0  0  0
    5.6516    3.5258   21.9140 C   0  0  0  0  0  0  0  0  0  0  0  0
   11.5863    9.6815   19.4539 C   0  0  0  0  0  0  0  0  0  0  0  0
   12.9648    4.1543   20.9205 C   0  0  0  0  0  0  0  0  0  0  0  0
    8.2089    3.6265   20.8929 C   0  0  0  0  0  0  0  0  0  0  0  0
    7.3827    2.5724   20.5432 C   0  0  0  0  0  0  0  0  0  0  0  0
   11.1529    7.2750   20.8025 C   0  0  0  0  0  0  0  0  0  0  0  0
   10.2573    8.3215   20.9827 C   0  0  0  0  0  0  0  0  0  0  0  0
   11.1606    5.9378   21.2366 N   0  0  0  0  0  0  0  0  0  0  0  0
    9.8932   11.6736   19.0677 O   0  0  0  0  0  0  0  0  0  0  0  0
    6.4470    4.5850   22.2321 C   0  0  0  0  0  0  0  0  0  0  0  0
    8.4619    6.9895   22.2968 C   0  0  0  0  0  0  0  0  0  0  0  0
   12.2747    7.5102   20.0420 C   0  0  0  0  0  0  0  0  0  0  0  0
   14.2544    6.2142   19.4191 C   0  0  0  0  0  0  0  0  0  0  0  0
   13.0695    6.3705   20.0375 N   0  0  0  0  0  0  0  0  0  0  0  0
    9.1913    8.0876   21.8361 N   0  0  0  0  0  0  0  0  0  0  0  0
   10.4739    9.4813   20.2889 C   0  0  0  0  0  0  0  0  0  0  0  0
    7.5551    7.1270   23.1200 O   0  0  0  0  0  0  0  0  0  0  0  0
  1 11  4  0
  1 21  4  0
  2  4  1  0
  2  8  1  0
  2 11  1  0
  3 10  4  0
  3 14  4  0
  4  5  1  0
  4 18  2  0
  6 12  1  0
  6 17  4  0
  6 23  4  0
  7  9  1  0
  7 13  4  0
  7 19  4  0
  9 20  1  0
 10 19  4  0
 11 25  4  0
 13 14  4  0
 15 16  4  0
 15 17  4  0
 15 21  4  0
 16 24  1  0
 16 25  4  0
 20 24  1  0
 20 26  2  0
 21 23  4  0
 22 23  1  0
M  END
$$$$

 Created by Python create_sdf_string function

 26 28  0  0  0  0  0  0  0  0999 V2000
   12.4616    8.6700   19.4180 N   0  0  0  0  0  0  0  0  0  0  0  0
   11.8329   10.8148   18.6769 N   0  0  0  0  0  0  0  0  0  0  0  0
    6.1021    2.5564   21.0678 C   0  0  0  0  0  0  0  0  0  0  0  0
   10.9097   11.8051   18.4804 C   0  0  0  0  0  0  0  0  0  0  0  0
   11.2280   12.9135   17.5669 C   0  0  0  0  0  0  0  0  0  0  0  0
   12.3782    5.4231   20.7777 C   0  0  0  0  0  0  0  0  0  0  0  0
    7.7365    4.6508   21.6987 C   0  0  0  0  0  0  0  0  0  0  0  0
   13.0186   11.0102   18.0020 C   0  0  0  0  0  0  0  0  0  0  0  0
    8.6628    5.7088   21.8871 N   0  0  0  0  0  0  0  0  0  0  0  0
    5.6516    3.5258   21.9140 C   0  0  0  0  0  0  0  0  0  0  0  0
   11.5863    9.6815   19.4539 C   0  0  0  0  0  0  0  0  0  0  0  0
   12.9648    4.1543   20.9205 C   0  0  0  0  0  0  0  0  0  0  0  0
    8.2089    3.6265   20.8929 C   0  0  0  0  0  0  0  0  0  0  0  0
    7.3827    2.5724   20.5432 C   0  0  0  0  0  0  0  0  0  0  0  0
   11.1529    7.2750   20.8025 C   0  0  0  0  0  0  0  0  0  0  0  0
   10.2573    8.3215   20.9827 C   0  0  0  0  0  0  0  0  0  0  0  0
   11.1606    5.9378   21.2366 N   0  0  0  0  0  0  0  0  0  0  0  0
    9.8932   11.6736   19.0677 O   0  0  0  0  0  0  0  0  0  0  0  0
    6.4470    4.5850   22.2321 C   0  0  0  0  0  0  0  0  0  0  0  0
    8.4619    6.9895   22.2968 C   0  0  0  0  0  0  0  0  0  0  0  0
   12.2747    7.5102   20.0420 C   0  0  0  0  0  0  0  0  0  0  0  0
   14.2544    6.2142   19.4191 C   0  0  0  0  0  0  0  0  0  0  0  0
   13.0695    6.3705   20.0375 N   0  0  0  0  0  0  0  0  0  0  0  0
    9.1913    8.0876   21.8361 N   0  0  0  0  0  0  0  0  0  0  0  0
   10.4739    9.4813   20.2889 C   0  0  0  0  0  0  0  0  0  0  0  0
    7.5551    7.1270   23.1200 O   0  0  0  0  0  0  0  0  0  0  0  0
  1 11  4  0
  1 21  4  0
  2  4  1  0
  2  8  1  0
  2 11  1  0
  3 10  4  0
  3 14  4  0
  4  5  1  0
  4 18  2  0
  6 12  1  0
  6 17  4  0
  6 23  4  0
  7  9  1  0
  7 13  4  0
  7 19  4  0
  9 20  1  0
 10 19  4  0
 11 25  4  0
 13 14  4  0
 15 16  4  0
 15 17  4  0
 15 21  4  0
 16 24  1  0
 16 25  4  0
 20 24  1  0
 20 26  2  0
 21 23  4  0
 22 23  1  0
M  END
$$$$

 Created by Python create_sdf_string function

 26 28  0  0  0  0  0  0  0  0999 V2000
   12.4616    8.6700   19.4180 N   0  0  0  0  0  0  0  0  0  0  0  0
   11.8329   10.8148   18.6769 N   0  0  0  0  0  0  0  0  0  0  0  0
    6.1021    2.5564   21.0678 C   0  0  0  0  0  0  0  0  0  0  0  0
   10.9097   11.8051   18.4804 C   0  0  0  0  0  0  0  0  0  0  0  0
   11.2280   12.9135   17.5669 C   0  0  0  0  0  0  0  0  0  0  0  0
   12.3782    5.4231   20.7777 C   0  0  0  0  0  0  0  0  0  0  0  0
    7.7365    4.6508   21.6987 C   0  0  0  0  0  0  0  0  0  0  0  0
   13.0186   11.0102   18.0020 C   0  0  0  0  0  0  0  0  0  0  0  0
    8.6628    5.7088   21.8871 N   0  0  0  0  0  0  0  0  0  0  0  0
    5.6516    3.5258   21.9140 C   0  0  0  0  0  0  0  0  0  0  0  0
   11.5863    9.6815   19.4539 C   0  0  0  0  0  0  0  0  0  0  0  0
   12.9648    4.1543   20.9205 C   0  0  0  0  0  0  0  0  0  0  0  0
    8.2089    3.6265   20.8929 C   0  0  0  0  0  0  0  0  0  0  0  0
    7.3827    2.5724   20.5432 C   0  0  0  0  0  0  0  0  0  0  0  0
   11.1529    7.2750   20.8025 C   0  0  0  0  0  0  0  0  0  0  0  0
   10.2573    8.3215   20.9827 C   0  0  0  0  0  0  0  0  0  0  0  0
   11.1606    5.9378   21.2366 N   0  0  0  0  0  0  0  0  0  0  0  0
    9.8932   11.6736   19.0677 O   0  0  0  0  0  0  0  0  0  0  0  0
    6.4470    4.5850   22.2321 C   0  0  0  0  0  0  0  0  0  0  0  0
    8.4619    6.9895   22.2968 C   0  0  0  0  0  0  0  0  0  0  0  0
   12.2747    7.5102   20.0420 C   0  0  0  0  0  0  0  0  0  0  0  0
   14.2544    6.2142   19.4191 C   0  0  0  0  0  0  0  0  0  0  0  0
   13.0695    6.3705   20.0375 N   0  0  0  0  0  0  0  0  0  0  0  0
    9.1913    8.0876   21.8361 N   0  0  0  0  0  0  0  0  0  0  0  0
   10.4739    9.4813   20.2889 C   0  0  0  0  0  0  0  0  0  0  0  0
    7.5551    7.1270   23.1200 O   0  0  0  0  0  0  0  0  0  0  0  0
  1 11  4  0
  1 21  4  0
  2  4  1  0
  2  8  1  0
  2 11  1  0
  3 10  4  0
  3 14  4  0
  4  5  1  0
  4 18  2  0
  6 12  1  0
  6 17  4  0
  6 23  4  0
  7  9  1  0
  7 13  4  0
  7 19  4  0
  9 20  1  0
 10 19  4  0
 11 25  4  0
 13 14  4  0
 15 16  4  0
 15 17  4  0
 15 21  4  0
 16 24  1  0
 16 25  4  0
 20 24  1  0
 20 26  2  0
 21 23  4  0
 22 23  1  0
M  END
$$$$

 Created by Python create_sdf_string function

 26 28  0  0  0  0  0  0  0  0999 V2000
   12.4616    8.6700   19.4180 N   0  0  0  0  0  0  0  0  0  0  0  0
   11.8329   10.8148   18.6769 N   0  0  0  0  0  0  0  0  0  0  0  0
    6.1021    2.5564   21.0678 C   0  0  0  0  0  0  0  0  0  0  0  0
   10.9097   11.8051   18.4804 C   0  0  0  0  0  0  0  0  0  0  0  0
   11.2280   12.9135   17.5669 C   0  0  0  0  0  0  0  0  0  0  0  0
   12.3782    5.4231   20.7777 C   0  0  0  0  0  0  0  0  0  0  0  0
    7.7365    4.6508   21.6987 C   0  0  0  0  0  0  0  0  0  0  0  0
   13.0186   11.0102   18.0020 C   0  0  0  0  0  0  0  0  0  0  0  0
    8.6628    5.7088   21.8871 N   0  0  0  0  0  0  0  0  0  0  0  0
    5.6516    3.5258   21.9140 C   0  0  0  0  0  0  0  0  0  0  0  0
   11.5863    9.6815   19.4539 C   0  0  0  0  0  0  0  0  0  0  0  0
   12.9648    4.1543   20.9205 C   0  0  0  0  0  0  0  0  0  0  0  0
    8.2089    3.6265   20.8929 C   0  0  0  0  0  0  0  0  0  0  0  0
    7.3827    2.5724   20.5432 C   0  0  0  0  0  0  0  0  0  0  0  0
   11.1529    7.2750   20.8025 C   0  0  0  0  0  0  0  0  0  0  0  0
   10.2573    8.3215   20.9827 C   0  0  0  0  0  0  0  0  0  0  0  0
   11.1606    5.9378   21.2366 N   0  0  0  0  0  0  0  0  0  0  0  0
    9.8932   11.6736   19.0677 O   0  0  0  0  0  0  0  0  0  0  0  0
    6.4470    4.5850   22.2321 C   0  0  0  0  0  0  0  0  0  0  0  0
    8.4619    6.9895   22.2968 C   0  0  0  0  0  0  0  0  0  0  0  0
   12.2747    7.5102   20.0420 C   0  0  0  0  0  0  0  0  0  0  0  0
   14.2544    6.2142   19.4191 C   0  0  0  0  0  0  0  0  0  0  0  0
   13.0695    6.3705   20.0375 N   0  0  0  0  0  0  0  0  0  0  0  0
    9.1913    8.0876   21.8361 N   0  0  0  0  0  0  0  0  0  0  0  0
   10.4739    9.4813   20.2889 C   0  0  0  0  0  0  0  0  0  0  0  0
    7.5551    7.1270   23.1200 O   0  0  0  0  0  0  0  0  0  0  0  0
  1 11  4  0
  1 21  4  0
  2  4  1  0
  2  8  1  0
  2 11  1  0
  3 10  4  0
  3 14  4  0
  4  5  1  0
  4 18  2  0
  6 12  1  0
  6 17  4  0
  6 23  4  0
  7  9  1  0
  7 13  4  0
  7 19  4  0
  9 20  1  0
 10 19  4  0
 11 25  4  0
 13 14  4  0
 15 16  4  0
 15 17  4  0
 15 21  4  0
 16 24  1  0
 16 25  4  0
 20 24  1  0
 20 26  2  0
 21 23  4  0
 22 23  1  0
M  END
$$$$

 Created by Python create_sdf_string function

 26 28  0  0  0  0  0  0  0  0999 V2000
   12.4616    8.6700   19.4180 N   0  0  0  0  0  0  0  0  0  0  0  0
   11.8329   10.8148   18.6769 N   0  0  0  0  0  0  0  0  0  0  0  0
    6.1021    2.5564   21.0678 C   0  0  0  0  0  0  0  0  0  0  0  0
   10.9097   11.8051   18.4804 C   0  0  0  0  0  0  0  0  0  0  0  0
   11.2280   12.9135   17.5669 C   0  0  0  0  0  0  0  0  0  0  0  0
   12.3782    5.4231   20.7777 C   0  0  0  0  0  0  0  0  0  0  0  0
    7.7365    4.6508   21.6987 C   0  0  0  0  0  0  0  0  0  0  0  0
   13.0186   11.0102   18.0020 C   0  0  0  0  0  0  0  0  0  0  0  0
    8.6628    5.7088   21.8871 N   0  0  0  0  0  0  0  0  0  0  0  0
    5.6516    3.5258   21.9140 C   0  0  0  0  0  0  0  0  0  0  0  0
   11.5863    9.6815   19.4539 C   0  0  0  0  0  0  0  0  0  0  0  0
   12.9648    4.1543   20.9205 C   0  0  0  0  0  0  0  0  0  0  0  0
    8.2089    3.6265   20.8929 C   0  0  0  0  0  0  0  0  0  0  0  0
    7.3827    2.5724   20.5432 C   0  0  0  0  0  0  0  0  0  0  0  0
   11.1529    7.2750   20.8025 C   0  0  0  0  0  0  0  0  0  0  0  0
   10.2573    8.3215   20.9827 C   0  0  0  0  0  0  0  0  0  0  0  0
   11.1606    5.9378   21.2366 N   0  0  0  0  0  0  0  0  0  0  0  0
    9.8932   11.6736   19.0677 O   0  0  0  0  0  0  0  0  0  0  0  0
    6.4470    4.5850   22.2321 C   0  0  0  0  0  0  0  0  0  0  0  0
    8.4619    6.9895   22.2968 C   0  0  0  0  0  0  0  0  0  0  0  0
   12.2747    7.5102   20.0420 C   0  0  0  0  0  0  0  0  0  0  0  0
   14.2544    6.2142   19.4191 C   0  0  0  0  0  0  0  0  0  0  0  0
   13.0695    6.3705   20.0375 N   0  0  0  0  0  0  0  0  0  0  0  0
    9.1913    8.0876   21.8361 N   0  0  0  0  0  0  0  0  0  0  0  0
   10.4739    9.4813   20.2889 C   0  0  0  0  0  0  0  0  0  0  0  0
    7.5551    7.1270   23.1200 O   0  0  0  0  0  0  0  0  0  0  0  0
  1 11  4  0
  1 21  4  0
  2  4  1  0
  2  8  1  0
  2 11  1  0
  3 10  4  0
  3 14  4  0
  4  5  1  0
  4 18  2  0
  6 12  1  0
  6 17  4  0
  6 23  4  0
  7  9  1  0
  7 13  4  0
  7 19  4  0
  9 20  1  0
 10 19  4  0
 11 25  4  0
 13 14  4  0
 15 16  4  0
 15 17  4  0
 15 21  4  0
 16 24  1  0
 16 25  4  0
 20 24  1  0
 20 26  2  0
 21 23  4  0
 22 23  1  0
M  END
$$$$

 Created by Python create_sdf_string function

 26 28  0  0  0  0  0  0  0  0999 V2000
   12.4616    8.6700   19.4180 N   0  0  0  0  0  0  0  0  0  0  0  0
   11.8329   10.8148   18.6769 N   0  0  0  0  0  0  0  0  0  0  0  0
    6.1021    2.5564   21.0678 C   0  0  0  0  0  0  0  0  0  0  0  0
   10.9097   11.8051   18.4804 C   0  0  0  0  0  0  0  0  0  0  0  0
   11.2280   12.9135   17.5669 C   0  0  0  0  0  0  0  0  0  0  0  0
   12.3782    5.4231   20.7777 C   0  0  0  0  0  0  0  0  0  0  0  0
    7.7365    4.6508   21.6987 C   0  0  0  0  0  0  0  0  0  0  0  0
   13.0186   11.0102   18.0020 C   0  0  0  0  0  0  0  0  0  0  0  0
    8.6628    5.7088   21.8871 N   0  0  0  0  0  0  0  0  0  0  0  0
    5.6516    3.5258   21.9140 C   0  0  0  0  0  0  0  0  0  0  0  0
   11.5863    9.6815   19.4539 C   0  0  0  0  0  0  0  0  0  0  0  0
   12.9648    4.1543   20.9205 C   0  0  0  0  0  0  0  0  0  0  0  0
    8.2089    3.6265   20.8929 C   0  0  0  0  0  0  0  0  0  0  0  0
    7.3827    2.5724   20.5432 C   0  0  0  0  0  0  0  0  0  0  0  0
   11.1529    7.2750   20.8025 C   0  0  0  0  0  0  0  0  0  0  0  0
   10.2573    8.3215   20.9827 C   0  0  0  0  0  0  0  0  0  0  0  0
   11.1606    5.9378   21.2366 N   0  0  0  0  0  0  0  0  0  0  0  0
    9.8932   11.6736   19.0677 O   0  0  0  0  0  0  0  0  0  0  0  0
    6.4470    4.5850   22.2321 C   0  0  0  0  0  0  0  0  0  0  0  0
    8.4619    6.9895   22.2968 C   0  0  0  0  0  0  0  0  0  0  0  0
   12.2747    7.5102   20.0420 C   0  0  0  0  0  0  0  0  0  0  0  0
   14.2544    6.2142   19.4191 C   0  0  0  0  0  0  0  0  0  0  0  0
   13.0695    6.3705   20.0375 N   0  0  0  0  0  0  0  0  0  0  0  0
    9.1913    8.0876   21.8361 N   0  0  0  0  0  0  0  0  0  0  0  0
   10.4739    9.4813   20.2889 C   0  0  0  0  0  0  0  0  0  0  0  0
    7.5551    7.1270   23.1200 O   0  0  0  0  0  0  0  0  0  0  0  0
  1 11  4  0
  1 21  4  0
  2  4  1  0
  2  8  1  0
  2 11  1  0
  3 10  4  0
  3 14  4  0
  4  5  1  0
  4 18  2  0
  6 12  1  0
  6 17  4  0
  6 23  4  0
  7  9  1  0
  7 13  4  0
  7 19  4  0
  9 20  1  0
 10 19  4  0
 11 25  4  0
 13 14  4  0
 15 16  4  0
 15 17  4  0
 15 21  4  0
 16 24  1  0
 16 25  4  0
 20 24  1  0
 20 26  2  0
 21 23  4  0
 22 23  1  0
M  END
$$$$

 Created by Python create_sdf_string function

 26 28  0  0  0  0  0  0  0  0999 V2000
   12.4616    8.6700   19.4180 N   0  0  0  0  0  0  0  0  0  0  0  0
   11.8329   10.8148   18.6769 N   0  0  0  0  0  0  0  0  0  0  0  0
    6.1021    2.5564   21.0678 C   0  0  0  0  0  0  0  0  0  0  0  0
   10.9097   11.8051   18.4804 C   0  0  0  0  0  0  0  0  0  0  0  0
   11.2280   12.9135   17.5669 C   0  0  0  0  0  0  0  0  0  0  0  0
   12.3782    5.4231   20.7777 C   0  0  0  0  0  0  0  0  0  0  0  0
    7.7365    4.6508   21.6987 C   0  0  0  0  0  0  0  0  0  0  0  0
   13.0186   11.0102   18.0020 C   0  0  0  0  0  0  0  0  0  0  0  0
    8.6628    5.7088   21.8871 N   0  0  0  0  0  0  0  0  0  0  0  0
    5.6516    3.5258   21.9140 C   0  0  0  0  0  0  0  0  0  0  0  0
   11.5863    9.6815   19.4539 C   0  0  0  0  0  0  0  0  0  0  0  0
   12.9648    4.1543   20.9205 C   0  0  0  0  0  0  0  0  0  0  0  0
    8.2089    3.6265   20.8929 C   0  0  0  0  0  0  0  0  0  0  0  0
    7.3827    2.5724   20.5432 C   0  0  0  0  0  0  0  0  0  0  0  0
   11.1529    7.2750   20.8025 C   0  0  0  0  0  0  0  0  0  0  0  0
   10.2573    8.3215   20.9827 C   0  0  0  0  0  0  0  0  0  0  0  0
   11.1606    5.9378   21.2366 N   0  0  0  0  0  0  0  0  0  0  0  0
    9.8932   11.6736   19.0677 O   0  0  0  0  0  0  0  0  0  0  0  0
    6.4470    4.5850   22.2321 C   0  0  0  0  0  0  0  0  0  0  0  0
    8.4619    6.9895   22.2968 C   0  0  0  0  0  0  0  0  0  0  0  0
   12.2747    7.5102   20.0420 C   0  0  0  0  0  0  0  0  0  0  0  0
   14.2544    6.2142   19.4191 C   0  0  0  0  0  0  0  0  0  0  0  0
   13.0695    6.3705   20.0375 N   0  0  0  0  0  0  0  0  0  0  0  0
    9.1913    8.0876   21.8361 N   0  0  0  0  0  0  0  0  0  0  0  0
   10.4739    9.4813   20.2889 C   0  0  0  0  0  0  0  0  0  0  0  0
    7.5551    7.1270   23.1200 O   0  0  0  0  0  0  0  0  0  0  0  0
  1 11  4  0
  1 21  4  0
  2  4  1  0
  2  8  1  0
  2 11  1  0
  3 10  4  0
  3 14  4  0
  4  5  1  0
  4 18  2  0
  6 12  1  0
  6 17  4  0
  6 23  4  0
  7  9  1  0
  7 13  4  0
  7 19  4  0
  9 20  1  0
 10 19  4  0
 11 25  4  0
 13 14  4  0
 15 16  4  0
 15 17  4  0
 15 21  4  0
 16 24  1  0
 16 25  4  0
 20 24  1  0
 20 26  2  0
 21 23  4  0
 22 23  1  0
M  END
$$$$

 Created by Python create_sdf_string function

 26 28  0  0  0  0  0  0  0  0999 V2000
   12.4616    8.6700   19.4180 N   0  0  0  0  0  0  0  0  0  0  0  0
   11.8329   10.8148   18.6769 N   0  0  0  0  0  0  0  0  0  0  0  0
    6.1021    2.5564   21.0678 C   0  0  0  0  0  0  0  0  0  0  0  0
   10.9097   11.8051   18.4804 C   0  0  0  0  0  0  0  0  0  0  0  0
   11.2280   12.9135   17.5669 C   0  0  0  0  0  0  0  0  0  0  0  0
   12.3782    5.4231   20.7777 C   0  0  0  0  0  0  0  0  0  0  0  0
    7.7365    4.6508   21.6987 C   0  0  0  0  0  0  0  0  0  0  0  0
   13.0186   11.0102   18.0020 C   0  0  0  0  0  0  0  0  0  0  0  0
    8.6628    5.7088   21.8871 N   0  0  0  0  0  0  0  0  0  0  0  0
    5.6516    3.5258   21.9140 C   0  0  0  0  0  0  0  0  0  0  0  0
   11.5863    9.6815   19.4539 C   0  0  0  0  0  0  0  0  0  0  0  0
   12.9648    4.1543   20.9205 C   0  0  0  0  0  0  0  0  0  0  0  0
    8.2089    3.6265   20.8929 C   0  0  0  0  0  0  0  0  0  0  0  0
    7.3827    2.5724   20.5432 C   0  0  0  0  0  0  0  0  0  0  0  0
   11.1529    7.2750   20.8025 C   0  0  0  0  0  0  0  0  0  0  0  0
   10.2573    8.3215   20.9827 C   0  0  0  0  0  0  0  0  0  0  0  0
   11.1606    5.9378   21.2366 N   0  0  0  0  0  0  0  0  0  0  0  0
    9.8932   11.6736   19.0677 O   0  0  0  0  0  0  0  0  0  0  0  0
    6.4470    4.5850   22.2321 C   0  0  0  0  0  0  0  0  0  0  0  0
    8.4619    6.9895   22.2968 C   0  0  0  0  0  0  0  0  0  0  0  0
   12.2747    7.5102   20.0420 C   0  0  0  0  0  0  0  0  0  0  0  0
   14.2544    6.2142   19.4191 C   0  0  0  0  0  0  0  0  0  0  0  0
   13.0695    6.3705   20.0375 N   0  0  0  0  0  0  0  0  0  0  0  0
    9.1913    8.0876   21.8361 N   0  0  0  0  0  0  0  0  0  0  0  0
   10.4739    9.4813   20.2889 C   0  0  0  0  0  0  0  0  0  0  0  0
    7.5551    7.1270   23.1200 O   0  0  0  0  0  0  0  0  0  0  0  0
  1 11  4  0
  1 21  4  0
  2  4  1  0
  2  8  1  0
  2 11  1  0
  3 10  4  0
  3 14  4  0
  4  5  1  0
  4 18  2  0
  6 12  1  0
  6 17  4  0
  6 23  4  0
  7  9  1  0
  7 13  4  0
  7 19  4  0
  9 20  1  0
 10 19  4  0
 11 25  4  0
 13 14  4  0
 15 16  4  0
 15 17  4  0
 15 21  4  0
 16 24  1  0
 16 25  4  0
 20 24  1  0
 20 26  2  0
 21 23  4  0
 22 23  1  0
M  END
$$$$

 Created by Python create_sdf_string function

 26 28  0  0  0  0  0  0  0  0999 V2000
   12.4616    8.6700   19.4180 N   0  0  0  0  0  0  0  0  0  0  0  0
   11.8329   10.8148   18.6769 N   0  0  0  0  0  0  0  0  0  0  0  0
    6.1021    2.5564   21.0678 C   0  0  0  0  0  0  0  0  0  0  0  0
   10.9097   11.8051   18.4804 C   0  0  0  0  0  0  0  0  0  0  0  0
   11.2280   12.9135   17.5669 C   0  0  0  0  0  0  0  0  0  0  0  0
   12.3782    5.4231   20.7777 C   0  0  0  0  0  0  0  0  0  0  0  0
    7.7365    4.6508   21.6987 C   0  0  0  0  0  0  0  0  0  0  0  0
   13.0186   11.0102   18.0020 C   0  0  0  0  0  0  0  0  0  0  0  0
    8.6628    5.7088   21.8871 N   0  0  0  0  0  0  0  0  0  0  0  0
    5.6516    3.5258   21.9140 C   0  0  0  0  0  0  0  0  0  0  0  0
   11.5863    9.6815   19.4539 C   0  0  0  0  0  0  0  0  0  0  0  0
   12.9648    4.1543   20.9205 C   0  0  0  0  0  0  0  0  0  0  0  0
    8.2089    3.6265   20.8929 C   0  0  0  0  0  0  0  0  0  0  0  0
    7.3827    2.5724   20.5432 C   0  0  0  0  0  0  0  0  0  0  0  0
   11.1529    7.2750   20.8025 C   0  0  0  0  0  0  0  0  0  0  0  0
   10.2573    8.3215   20.9827 C   0  0  0  0  0  0  0  0  0  0  0  0
   11.1606    5.9378   21.2366 N   0  0  0  0  0  0  0  0  0  0  0  0
    9.8932   11.6736   19.0677 O   0  0  0  0  0  0  0  0  0  0  0  0
    6.4470    4.5850   22.2321 C   0  0  0  0  0  0  0  0  0  0  0  0
    8.4619    6.9895   22.2968 C   0  0  0  0  0  0  0  0  0  0  0  0
   12.2747    7.5102   20.0420 C   0  0  0  0  0  0  0  0  0  0  0  0
   14.2544    6.2142   19.4191 C   0  0  0  0  0  0  0  0  0  0  0  0
   13.0695    6.3705   20.0375 N   0  0  0  0  0  0  0  0  0  0  0  0
    9.1913    8.0876   21.8361 N   0  0  0  0  0  0  0  0  0  0  0  0
   10.4739    9.4813   20.2889 C   0  0  0  0  0  0  0  0  0  0  0  0
    7.5551    7.1270   23.1200 O   0  0  0  0  0  0  0  0  0  0  0  0
  1 11  4  0
  1 21  4  0
  2  4  1  0
  2  8  1  0
  2 11  1  0
  3 10  4  0
  3 14  4  0
  4  5  1  0
  4 18  2  0
  6 12  1  0
  6 17  4  0
  6 23  4  0
  7  9  1  0
  7 13  4  0
  7 19  4  0
  9 20  1  0
 10 19  4  0
 11 25  4  0
 13 14  4  0
 15 16  4  0
 15 17  4  0
 15 21  4  0
 16 24  1  0
 16 25  4  0
 20 24  1  0
 20 26  2  0
 21 23  4  0
 22 23  1  0
M  END
$$$$

 Created by Python create_sdf_string function

 26 28  0  0  0  0  0  0  0  0999 V2000
   12.4616    8.6700   19.4180 N   0  0  0  0  0  0  0  0  0  0  0  0
   11.8329   10.8148   18.6769 N   0  0  0  0  0  0  0  0  0  0  0  0
    6.1021    2.5564   21.0678 C   0  0  0  0  0  0  0  0  0  0  0  0
   10.9097   11.8051   18.4804 C   0  0  0  0  0  0  0  0  0  0  0  0
   11.2280   12.9135   17.5669 C   0  0  0  0  0  0  0  0  0  0  0  0
   12.3782    5.4231   20.7777 C   0  0  0  0  0  0  0  0  0  0  0  0
    7.7365    4.6508   21.6987 C   0  0  0  0  0  0  0  0  0  0  0  0
   13.0186   11.0102   18.0020 C   0  0  0  0  0  0  0  0  0  0  0  0
    8.6628    5.7088   21.8871 N   0  0  0  0  0  0  0  0  0  0  0  0
    5.6516    3.5258   21.9140 C   0  0  0  0  0  0  0  0  0  0  0  0
   11.5863    9.6815   19.4539 C   0  0  0  0  0  0  0  0  0  0  0  0
   12.9648    4.1543   20.9205 C   0  0  0  0  0  0  0  0  0  0  0  0
    8.2089    3.6265   20.8929 C   0  0  0  0  0  0  0  0  0  0  0  0
    7.3827    2.5724   20.5432 C   0  0  0  0  0  0  0  0  0  0  0  0
   11.1529    7.2750   20.8025 C   0  0  0  0  0  0  0  0  0  0  0  0
   10.2573    8.3215   20.9827 C   0  0  0  0  0  0  0  0  0  0  0  0
   11.1606    5.9378   21.2366 N   0  0  0  0  0  0  0  0  0  0  0  0
    9.8932   11.6736   19.0677 O   0  0  0  0  0  0  0  0  0  0  0  0
    6.4470    4.5850   22.2321 C   0  0  0  0  0  0  0  0  0  0  0  0
    8.4619    6.9895   22.2968 C   0  0  0  0  0  0  0  0  0  0  0  0
   12.2747    7.5102   20.0420 C   0  0  0  0  0  0  0  0  0  0  0  0
   14.2544    6.2142   19.4191 C   0  0  0  0  0  0  0  0  0  0  0  0
   13.0695    6.3705   20.0375 N   0  0  0  0  0  0  0  0  0  0  0  0
    9.1913    8.0876   21.8361 N   0  0  0  0  0  0  0  0  0  0  0  0
   10.4739    9.4813   20.2889 C   0  0  0  0  0  0  0  0  0  0  0  0
    7.5551    7.1270   23.1200 O   0  0  0  0  0  0  0  0  0  0  0  0
  1 11  4  0
  1 21  4  0
  2  4  1  0
  2  8  1  0
  2 11  1  0
  3 10  4  0
  3 14  4  0
  4  5  1  0
  4 18  2  0
  6 12  1  0
  6 17  4  0
  6 23  4  0
  7  9  1  0
  7 13  4  0
  7 19  4  0
  9 20  1  0
 10 19  4  0
 11 25  4  0
 13 14  4  0
 15 16  4  0
 15 17  4  0
 15 21  4  0
 16 24  1  0
 16 25  4  0
 20 24  1  0
 20 26  2  0
 21 23  4  0
 22 23  1  0
M  END
$$$$

 Created by Python create_sdf_string function

 26 28  0  0  0  0  0  0  0  0999 V2000
   12.4616    8.6700   19.4180 N   0  0  0  0  0  0  0  0  0  0  0  0
   11.8329   10.8148   18.6769 N   0  0  0  0  0  0  0  0  0  0  0  0
    6.1021    2.5564   21.0678 C   0  0  0  0  0  0  0  0  0  0  0  0
   10.9097   11.8051   18.4804 C   0  0  0  0  0  0  0  0  0  0  0  0
   11.2280   12.9135   17.5669 C   0  0  0  0  0  0  0  0  0  0  0  0
   12.3782    5.4231   20.7777 C   0  0  0  0  0  0  0  0  0  0  0  0
    7.7365    4.6508   21.6987 C   0  0  0  0  0  0  0  0  0  0  0  0
   13.0186   11.0102   18.0020 C   0  0  0  0  0  0  0  0  0  0  0  0
    8.6628    5.7088   21.8871 N   0  0  0  0  0  0  0  0  0  0  0  0
    5.6516    3.5258   21.9140 C   0  0  0  0  0  0  0  0  0  0  0  0
   11.5863    9.6815   19.4539 C   0  0  0  0  0  0  0  0  0  0  0  0
   12.9648    4.1543   20.9205 C   0  0  0  0  0  0  0  0  0  0  0  0
    8.2089    3.6265   20.8929 C   0  0  0  0  0  0  0  0  0  0  0  0
    7.3827    2.5724   20.5432 C   0  0  0  0  0  0  0  0  0  0  0  0
   11.1529    7.2750   20.8025 C   0  0  0  0  0  0  0  0  0  0  0  0
   10.2573    8.3215   20.9827 C   0  0  0  0  0  0  0  0  0  0  0  0
   11.1606    5.9378   21.2366 N   0  0  0  0  0  0  0  0  0  0  0  0
    9.8932   11.6736   19.0677 O   0  0  0  0  0  0  0  0  0  0  0  0
    6.4470    4.5850   22.2321 C   0  0  0  0  0  0  0  0  0  0  0  0
    8.4619    6.9895   22.2968 C   0  0  0  0  0  0  0  0  0  0  0  0
   12.2747    7.5102   20.0420 C   0  0  0  0  0  0  0  0  0  0  0  0
   14.2544    6.2142   19.4191 C   0  0  0  0  0  0  0  0  0  0  0  0
   13.0695    6.3705   20.0375 N   0  0  0  0  0  0  0  0  0  0  0  0
    9.1913    8.0876   21.8361 N   0  0  0  0  0  0  0  0  0  0  0  0
   10.4739    9.4813   20.2889 C   0  0  0  0  0  0  0  0  0  0  0  0
    7.5551    7.1270   23.1200 O   0  0  0  0  0  0  0  0  0  0  0  0
  1 11  4  0
  1 21  4  0
  2  4  1  0
  2  8  1  0
  2 11  1  0
  3 10  4  0
  3 14  4  0
  4  5  1  0
  4 18  2  0
  6 12  1  0
  6 17  4  0
  6 23  4  0
  7  9  1  0
  7 13  4  0
  7 19  4  0
  9 20  1  0
 10 19  4  0
 11 25  4  0
 13 14  4  0
 15 16  4  0
 15 17  4  0
 15 21  4  0
 16 24  1  0
 16 25  4  0
 20 24  1  0
 20 26  2  0
 21 23  4  0
 22 23  1  0
M  END
$$$$

 Created by Python create_sdf_string function

 26 28  0  0  0  0  0  0  0  0999 V2000
   12.4616    8.6700   19.4180 N   0  0  0  0  0  0  0  0  0  0  0  0
   11.8329   10.8148   18.6769 N   0  0  0  0  0  0  0  0  0  0  0  0
    6.1021    2.5564   21.0678 C   0  0  0  0  0  0  0  0  0  0  0  0
   10.9097   11.8051   18.4804 C   0  0  0  0  0  0  0  0  0  0  0  0
   11.2280   12.9135   17.5669 C   0  0  0  0  0  0  0  0  0  0  0  0
   12.3782    5.4231   20.7777 C   0  0  0  0  0  0  0  0  0  0  0  0
    7.7365    4.6508   21.6987 C   0  0  0  0  0  0  0  0  0  0  0  0
   13.0186   11.0102   18.0020 C   0  0  0  0  0  0  0  0  0  0  0  0
    8.6628    5.7088   21.8871 N   0  0  0  0  0  0  0  0  0  0  0  0
    5.6516    3.5258   21.9140 C   0  0  0  0  0  0  0  0  0  0  0  0
   11.5863    9.6815   19.4539 C   0  0  0  0  0  0  0  0  0  0  0  0
   12.9648    4.1543   20.9205 C   0  0  0  0  0  0  0  0  0  0  0  0
    8.2089    3.6265   20.8929 C   0  0  0  0  0  0  0  0  0  0  0  0
    7.3827    2.5724   20.5432 C   0  0  0  0  0  0  0  0  0  0  0  0
   11.1529    7.2750   20.8025 C   0  0  0  0  0  0  0  0  0  0  0  0
   10.2573    8.3215   20.9827 C   0  0  0  0  0  0  0  0  0  0  0  0
   11.1606    5.9378   21.2366 N   0  0  0  0  0  0  0  0  0  0  0  0
    9.8932   11.6736   19.0677 O   0  0  0  0  0  0  0  0  0  0  0  0
    6.4470    4.5850   22.2321 C   0  0  0  0  0  0  0  0  0  0  0  0
    8.4619    6.9895   22.2968 C   0  0  0  0  0  0  0  0  0  0  0  0
   12.2747    7.5102   20.0420 C   0  0  0  0  0  0  0  0  0  0  0  0
   14.2544    6.2142   19.4191 C   0  0  0  0  0  0  0  0  0  0  0  0
   13.0695    6.3705   20.0375 N   0  0  0  0  0  0  0  0  0  0  0  0
    9.1913    8.0876   21.8361 N   0  0  0  0  0  0  0  0  0  0  0  0
   10.4739    9.4813   20.2889 C   0  0  0  0  0  0  0  0  0  0  0  0
    7.5551    7.1270   23.1200 O   0  0  0  0  0  0  0  0  0  0  0  0
  1 11  4  0
  1 21  4  0
  2  4  1  0
  2  8  1  0
  2 11  1  0
  3 10  4  0
  3 14  4  0
  4  5  1  0
  4 18  2  0
  6 12  1  0
  6 17  4  0
  6 23  4  0
  7  9  1  0
  7 13  4  0
  7 19  4  0
  9 20  1  0
 10 19  4  0
 11 25  4  0
 13 14  4  0
 15 16  4  0
 15 17  4  0
 15 21  4  0
 16 24  1  0
 16 25  4  0
 20 24  1  0
 20 26  2  0
 21 23  4  0
 22 23  1  0
M  END
$$$$

 Created by Python create_sdf_string function

 26 28  0  0  0  0  0  0  0  0999 V2000
   12.4616    8.6700   19.4180 N   0  0  0  0  0  0  0  0  0  0  0  0
   11.8329   10.8148   18.6769 N   0  0  0  0  0  0  0  0  0  0  0  0
    6.1021    2.5564   21.0678 C   0  0  0  0  0  0  0  0  0  0  0  0
   10.9097   11.8051   18.4804 C   0  0  0  0  0  0  0  0  0  0  0  0
   11.2280   12.9135   17.5669 C   0  0  0  0  0  0  0  0  0  0  0  0
   12.3782    5.4231   20.7777 C   0  0  0  0  0  0  0  0  0  0  0  0
    7.7365    4.6508   21.6987 C   0  0  0  0  0  0  0  0  0  0  0  0
   13.0186   11.0102   18.0020 C   0  0  0  0  0  0  0  0  0  0  0  0
    8.6628    5.7088   21.8871 N   0  0  0  0  0  0  0  0  0  0  0  0
    5.6516    3.5258   21.9140 C   0  0  0  0  0  0  0  0  0  0  0  0
   11.5863    9.6815   19.4539 C   0  0  0  0  0  0  0  0  0  0  0  0
   12.9648    4.1543   20.9205 C   0  0  0  0  0  0  0  0  0  0  0  0
    8.2089    3.6265   20.8929 C   0  0  0  0  0  0  0  0  0  0  0  0
    7.3827    2.5724   20.5432 C   0  0  0  0  0  0  0  0  0  0  0  0
   11.1529    7.2750   20.8025 C   0  0  0  0  0  0  0  0  0  0  0  0
   10.2573    8.3215   20.9827 C   0  0  0  0  0  0  0  0  0  0  0  0
   11.1606    5.9378   21.2366 N   0  0  0  0  0  0  0  0  0  0  0  0
    9.8932   11.6736   19.0677 O   0  0  0  0  0  0  0  0  0  0  0  0
    6.4470    4.5850   22.2321 C   0  0  0  0  0  0  0  0  0  0  0  0
    8.4619    6.9895   22.2968 C   0  0  0  0  0  0  0  0  0  0  0  0
   12.2747    7.5102   20.0420 C   0  0  0  0  0  0  0  0  0  0  0  0
   14.2544    6.2142   19.4191 C   0  0  0  0  0  0  0  0  0  0  0  0
   13.0695    6.3705   20.0375 N   0  0  0  0  0  0  0  0  0  0  0  0
    9.1913    8.0876   21.8361 N   0  0  0  0  0  0  0  0  0  0  0  0
   10.4739    9.4813   20.2889 C   0  0  0  0  0  0  0  0  0  0  0  0
    7.5551    7.1270   23.1200 O   0  0  0  0  0  0  0  0  0  0  0  0
  1 11  4  0
  1 21  4  0
  2  4  1  0
  2  8  1  0
  2 11  1  0
  3 10  4  0
  3 14  4  0
  4  5  1  0
  4 18  2  0
  6 12  1  0
  6 17  4  0
  6 23  4  0
  7  9  1  0
  7 13  4  0
  7 19  4  0
  9 20  1  0
 10 19  4  0
 11 25  4  0
 13 14  4  0
 15 16  4  0
 15 17  4  0
 15 21  4  0
 16 24  1  0
 16 25  4  0
 20 24  1  0
 20 26  2  0
 21 23  4  0
 22 23  1  0
M  END
$$$$

 Created by Python create_sdf_string function

 26 28  0  0  0  0  0  0  0  0999 V2000
   12.4616    8.6700   19.4180 N   0  0  0  0  0  0  0  0  0  0  0  0
   11.8329   10.8148   18.6769 N   0  0  0  0  0  0  0  0  0  0  0  0
    6.1021    2.5564   21.0678 C   0  0  0  0  0  0  0  0  0  0  0  0
   10.9097   11.8051   18.4804 C   0  0  0  0  0  0  0  0  0  0  0  0
   11.2280   12.9135   17.5669 C   0  0  0  0  0  0  0  0  0  0  0  0
   12.3782    5.4231   20.7777 C   0  0  0  0  0  0  0  0  0  0  0  0
    7.7365    4.6508   21.6987 C   0  0  0  0  0  0  0  0  0  0  0  0
   13.0186   11.0102   18.0020 C   0  0  0  0  0  0  0  0  0  0  0  0
    8.6628    5.7088   21.8871 N   0  0  0  0  0  0  0  0  0  0  0  0
    5.6516    3.5258   21.9140 C   0  0  0  0  0  0  0  0  0  0  0  0
   11.5863    9.6815   19.4539 C   0  0  0  0  0  0  0  0  0  0  0  0
   12.9648    4.1543   20.9205 C   0  0  0  0  0  0  0  0  0  0  0  0
    8.2089    3.6265   20.8929 C   0  0  0  0  0  0  0  0  0  0  0  0
    7.3827    2.5724   20.5432 C   0  0  0  0  0  0  0  0  0  0  0  0
   11.1529    7.2750   20.8025 C   0  0  0  0  0  0  0  0  0  0  0  0
   10.2573    8.3215   20.9827 C   0  0  0  0  0  0  0  0  0  0  0  0
   11.1606    5.9378   21.2366 N   0  0  0  0  0  0  0  0  0  0  0  0
    9.8932   11.6736   19.0677 O   0  0  0  0  0  0  0  0  0  0  0  0
    6.4470    4.5850   22.2321 C   0  0  0  0  0  0  0  0  0  0  0  0
    8.4619    6.9895   22.2968 C   0  0  0  0  0  0  0  0  0  0  0  0
   12.2747    7.5102   20.0420 C   0  0  0  0  0  0  0  0  0  0  0  0
   14.2544    6.2142   19.4191 C   0  0  0  0  0  0  0  0  0  0  0  0
   13.0695    6.3705   20.0375 N   0  0  0  0  0  0  0  0  0  0  0  0
    9.1913    8.0876   21.8361 N   0  0  0  0  0  0  0  0  0  0  0  0
   10.4739    9.4813   20.2889 C   0  0  0  0  0  0  0  0  0  0  0  0
    7.5551    7.1270   23.1200 O   0  0  0  0  0  0  0  0  0  0  0  0
  1 11  4  0
  1 21  4  0
  2  4  1  0
  2  8  1  0
  2 11  1  0
  3 10  4  0
  3 14  4  0
  4  5  1  0
  4 18  2  0
  6 12  1  0
  6 17  4  0
  6 23  4  0
  7  9  1  0
  7 13  4  0
  7 19  4  0
  9 20  1  0
 10 19  4  0
 11 25  4  0
 13 14  4  0
 15 16  4  0
 15 17  4  0
 15 21  4  0
 16 24  1  0
 16 25  4  0
 20 24  1  0
 20 26  2  0
 21 23  4  0
 22 23  1  0
M  END
$$$$

 Created by Python create_sdf_string function

 26 28  0  0  0  0  0  0  0  0999 V2000
   12.4616    8.6700   19.4180 N   0  0  0  0  0  0  0  0  0  0  0  0
   11.8329   10.8148   18.6769 N   0  0  0  0  0  0  0  0  0  0  0  0
    6.1021    2.5564   21.0678 C   0  0  0  0  0  0  0  0  0  0  0  0
   10.9097   11.8051   18.4804 C   0  0  0  0  0  0  0  0  0  0  0  0
   11.2280   12.9135   17.5669 C   0  0  0  0  0  0  0  0  0  0  0  0
   12.3782    5.4231   20.7777 C   0  0  0  0  0  0  0  0  0  0  0  0
    7.7365    4.6508   21.6987 C   0  0  0  0  0  0  0  0  0  0  0  0
   13.0186   11.0102   18.0020 C   0  0  0  0  0  0  0  0  0  0  0  0
    8.6628    5.7088   21.8871 N   0  0  0  0  0  0  0  0  0  0  0  0
    5.6516    3.5258   21.9140 C   0  0  0  0  0  0  0  0  0  0  0  0
   11.5863    9.6815   19.4539 C   0  0  0  0  0  0  0  0  0  0  0  0
   12.9648    4.1543   20.9205 C   0  0  0  0  0  0  0  0  0  0  0  0
    8.2089    3.6265   20.8929 C   0  0  0  0  0  0  0  0  0  0  0  0
    7.3827    2.5724   20.5432 C   0  0  0  0  0  0  0  0  0  0  0  0
   11.1529    7.2750   20.8025 C   0  0  0  0  0  0  0  0  0  0  0  0
   10.2573    8.3215   20.9827 C   0  0  0  0  0  0  0  0  0  0  0  0
   11.1606    5.9378   21.2366 N   0  0  0  0  0  0  0  0  0  0  0  0
    9.8932   11.6736   19.0677 O   0  0  0  0  0  0  0  0  0  0  0  0
    6.4470    4.5850   22.2321 C   0  0  0  0  0  0  0  0  0  0  0  0
    8.4619    6.9895   22.2968 C   0  0  0  0  0  0  0  0  0  0  0  0
   12.2747    7.5102   20.0420 C   0  0  0  0  0  0  0  0  0  0  0  0
   14.2544    6.2142   19.4191 C   0  0  0  0  0  0  0  0  0  0  0  0
   13.0695    6.3705   20.0375 N   0  0  0  0  0  0  0  0  0  0  0  0
    9.1913    8.0876   21.8361 N   0  0  0  0  0  0  0  0  0  0  0  0
   10.4739    9.4813   20.2889 C   0  0  0  0  0  0  0  0  0  0  0  0
    7.5551    7.1270   23.1200 O   0  0  0  0  0  0  0  0  0  0  0  0
  1 11  4  0
  1 21  4  0
  2  4  1  0
  2  8  1  0
  2 11  1  0
  3 10  4  0
  3 14  4  0
  4  5  1  0
  4 18  2  0
  6 12  1  0
  6 17  4  0
  6 23  4  0
  7  9  1  0
  7 13  4  0
  7 19  4  0
  9 20  1  0
 10 19  4  0
 11 25  4  0
 13 14  4  0
 15 16  4  0
 15 17  4  0
 15 21  4  0
 16 24  1  0
 16 25  4  0
 20 24  1  0
 20 26  2  0
 21 23  4  0
 22 23  1  0
M  END
$$$$

 Created by Python create_sdf_string function

 26 28  0  0  0  0  0  0  0  0999 V2000
   12.4616    8.6700   19.4180 N   0  0  0  0  0  0  0  0  0  0  0  0
   11.8329   10.8148   18.6769 N   0  0  0  0  0  0  0  0  0  0  0  0
    6.1021    2.5564   21.0678 C   0  0  0  0  0  0  0  0  0  0  0  0
   10.9097   11.8051   18.4804 C   0  0  0  0  0  0  0  0  0  0  0  0
   11.2280   12.9135   17.5669 C   0  0  0  0  0  0  0  0  0  0  0  0
   12.3782    5.4231   20.7777 C   0  0  0  0  0  0  0  0  0  0  0  0
    7.7365    4.6508   21.6987 C   0  0  0  0  0  0  0  0  0  0  0  0
   13.0186   11.0102   18.0020 C   0  0  0  0  0  0  0  0  0  0  0  0
    8.6628    5.7088   21.8871 N   0  0  0  0  0  0  0  0  0  0  0  0
    5.6516    3.5258   21.9140 C   0  0  0  0  0  0  0  0  0  0  0  0
   11.5863    9.6815   19.4539 C   0  0  0  0  0  0  0  0  0  0  0  0
   12.9648    4.1543   20.9205 C   0  0  0  0  0  0  0  0  0  0  0  0
    8.2089    3.6265   20.8929 C   0  0  0  0  0  0  0  0  0  0  0  0
    7.3827    2.5724   20.5432 C   0  0  0  0  0  0  0  0  0  0  0  0
   11.1529    7.2750   20.8025 C   0  0  0  0  0  0  0  0  0  0  0  0
   10.2573    8.3215   20.9827 C   0  0  0  0  0  0  0  0  0  0  0  0
   11.1606    5.9378   21.2366 N   0  0  0  0  0  0  0  0  0  0  0  0
    9.8932   11.6736   19.0677 O   0  0  0  0  0  0  0  0  0  0  0  0
    6.4470    4.5850   22.2321 C   0  0  0  0  0  0  0  0  0  0  0  0
    8.4619    6.9895   22.2968 C   0  0  0  0  0  0  0  0  0  0  0  0
   12.2747    7.5102   20.0420 C   0  0  0  0  0  0  0  0  0  0  0  0
   14.2544    6.2142   19.4191 C   0  0  0  0  0  0  0  0  0  0  0  0
   13.0695    6.3705   20.0375 N   0  0  0  0  0  0  0  0  0  0  0  0
    9.1913    8.0876   21.8361 N   0  0  0  0  0  0  0  0  0  0  0  0
   10.4739    9.4813   20.2889 C   0  0  0  0  0  0  0  0  0  0  0  0
    7.5551    7.1270   23.1200 O   0  0  0  0  0  0  0  0  0  0  0  0
  1 11  4  0
  1 21  4  0
  2  4  1  0
  2  8  1  0
  2 11  1  0
  3 10  4  0
  3 14  4  0
  4  5  1  0
  4 18  2  0
  6 12  1  0
  6 17  4  0
  6 23  4  0
  7  9  1  0
  7 13  4  0
  7 19  4  0
  9 20  1  0
 10 19  4  0
 11 25  4  0
 13 14  4  0
 15 16  4  0
 15 17  4  0
 15 21  4  0
 16 24  1  0
 16 25  4  0
 20 24  1  0
 20 26  2  0
 21 23  4  0
 22 23  1  0
M  END
$$$$

 Created by Python create_sdf_string function

 26 28  0  0  0  0  0  0  0  0999 V2000
   12.4616    8.6700   19.4180 N   0  0  0  0  0  0  0  0  0  0  0  0
   11.8329   10.8148   18.6769 N   0  0  0  0  0  0  0  0  0  0  0  0
    6.1021    2.5564   21.0678 C   0  0  0  0  0  0  0  0  0  0  0  0
   10.9097   11.8051   18.4804 C   0  0  0  0  0  0  0  0  0  0  0  0
   11.2280   12.9135   17.5669 C   0  0  0  0  0  0  0  0  0  0  0  0
   12.3782    5.4231   20.7777 C   0  0  0  0  0  0  0  0  0  0  0  0
    7.7365    4.6508   21.6987 C   0  0  0  0  0  0  0  0  0  0  0  0
   13.0186   11.0102   18.0020 C   0  0  0  0  0  0  0  0  0  0  0  0
    8.6628    5.7088   21.8871 N   0  0  0  0  0  0  0  0  0  0  0  0
    5.6516    3.5258   21.9140 C   0  0  0  0  0  0  0  0  0  0  0  0
   11.5863    9.6815   19.4539 C   0  0  0  0  0  0  0  0  0  0  0  0
   12.9648    4.1543   20.9205 C   0  0  0  0  0  0  0  0  0  0  0  0
    8.2089    3.6265   20.8929 C   0  0  0  0  0  0  0  0  0  0  0  0
    7.3827    2.5724   20.5432 C   0  0  0  0  0  0  0  0  0  0  0  0
   11.1529    7.2750   20.8025 C   0  0  0  0  0  0  0  0  0  0  0  0
   10.2573    8.3215   20.9827 C   0  0  0  0  0  0  0  0  0  0  0  0
   11.1606    5.9378   21.2366 N   0  0  0  0  0  0  0  0  0  0  0  0
    9.8932   11.6736   19.0677 O   0  0  0  0  0  0  0  0  0  0  0  0
    6.4470    4.5850   22.2321 C   0  0  0  0  0  0  0  0  0  0  0  0
    8.4619    6.9895   22.2968 C   0  0  0  0  0  0  0  0  0  0  0  0
   12.2747    7.5102   20.0420 C   0  0  0  0  0  0  0  0  0  0  0  0
   14.2544    6.2142   19.4191 C   0  0  0  0  0  0  0  0  0  0  0  0
   13.0695    6.3705   20.0375 N   0  0  0  0  0  0  0  0  0  0  0  0
    9.1913    8.0876   21.8361 N   0  0  0  0  0  0  0  0  0  0  0  0
   10.4739    9.4813   20.2889 C   0  0  0  0  0  0  0  0  0  0  0  0
    7.5551    7.1270   23.1200 O   0  0  0  0  0  0  0  0  0  0  0  0
  1 11  4  0
  1 21  4  0
  2  4  1  0
  2  8  1  0
  2 11  1  0
  3 10  4  0
  3 14  4  0
  4  5  1  0
  4 18  2  0
  6 12  1  0
  6 17  4  0
  6 23  4  0
  7  9  1  0
  7 13  4  0
  7 19  4  0
  9 20  1  0
 10 19  4  0
 11 25  4  0
 13 14  4  0
 15 16  4  0
 15 17  4  0
 15 21  4  0
 16 24  1  0
 16 25  4  0
 20 24  1  0
 20 26  2  0
 21 23  4  0
 22 23  1  0
M  END
$$$$

 Created by Python create_sdf_string function

 26 28  0  0  0  0  0  0  0  0999 V2000
   12.4616    8.6700   19.4180 N   0  0  0  0  0  0  0  0  0  0  0  0
   11.8329   10.8148   18.6769 N   0  0  0  0  0  0  0  0  0  0  0  0
    6.1021    2.5564   21.0678 C   0  0  0  0  0  0  0  0  0  0  0  0
   10.9097   11.8051   18.4804 C   0  0  0  0  0  0  0  0  0  0  0  0
   11.2280   12.9135   17.5669 C   0  0  0  0  0  0  0  0  0  0  0  0
   12.3782    5.4231   20.7777 C   0  0  0  0  0  0  0  0  0  0  0  0
    7.7365    4.6508   21.6987 C   0  0  0  0  0  0  0  0  0  0  0  0
   13.0186   11.0102   18.0020 C   0  0  0  0  0  0  0  0  0  0  0  0
    8.6628    5.7088   21.8871 N   0  0  0  0  0  0  0  0  0  0  0  0
    5.6516    3.5258   21.9140 C   0  0  0  0  0  0  0  0  0  0  0  0
   11.5863    9.6815   19.4539 C   0  0  0  0  0  0  0  0  0  0  0  0
   12.9648    4.1543   20.9205 C   0  0  0  0  0  0  0  0  0  0  0  0
    8.2089    3.6265   20.8929 C   0  0  0  0  0  0  0  0  0  0  0  0
    7.3827    2.5724   20.5432 C   0  0  0  0  0  0  0  0  0  0  0  0
   11.1529    7.2750   20.8025 C   0  0  0  0  0  0  0  0  0  0  0  0
   10.2573    8.3215   20.9827 C   0  0  0  0  0  0  0  0  0  0  0  0
   11.1606    5.9378   21.2366 N   0  0  0  0  0  0  0  0  0  0  0  0
    9.8932   11.6736   19.0677 O   0  0  0  0  0  0  0  0  0  0  0  0
    6.4470    4.5850   22.2321 C   0  0  0  0  0  0  0  0  0  0  0  0
    8.4619    6.9895   22.2968 C   0  0  0  0  0  0  0  0  0  0  0  0
   12.2747    7.5102   20.0420 C   0  0  0  0  0  0  0  0  0  0  0  0
   14.2544    6.2142   19.4191 C   0  0  0  0  0  0  0  0  0  0  0  0
   13.0695    6.3705   20.0375 N   0  0  0  0  0  0  0  0  0  0  0  0
    9.1913    8.0876   21.8361 N   0  0  0  0  0  0  0  0  0  0  0  0
   10.4739    9.4813   20.2889 C   0  0  0  0  0  0  0  0  0  0  0  0
    7.5551    7.1270   23.1200 O   0  0  0  0  0  0  0  0  0  0  0  0
  1 11  4  0
  1 21  4  0
  2  4  1  0
  2  8  1  0
  2 11  1  0
  3 10  4  0
  3 14  4  0
  4  5  1  0
  4 18  2  0
  6 12  1  0
  6 17  4  0
  6 23  4  0
  7  9  1  0
  7 13  4  0
  7 19  4  0
  9 20  1  0
 10 19  4  0
 11 25  4  0
 13 14  4  0
 15 16  4  0
 15 17  4  0
 15 21  4  0
 16 24  1  0
 16 25  4  0
 20 24  1  0
 20 26  2  0
 21 23  4  0
 22 23  1  0
M  END
$$$$

 Created by Python create_sdf_string function

 26 28  0  0  0  0  0  0  0  0999 V2000
   12.4616    8.6700   19.4180 N   0  0  0  0  0  0  0  0  0  0  0  0
   11.8329   10.8148   18.6769 N   0  0  0  0  0  0  0  0  0  0  0  0
    6.1021    2.5564   21.0678 C   0  0  0  0  0  0  0  0  0  0  0  0
   10.9097   11.8051   18.4804 C   0  0  0  0  0  0  0  0  0  0  0  0
   11.2280   12.9135   17.5669 C   0  0  0  0  0  0  0  0  0  0  0  0
   12.3782    5.4231   20.7777 C   0  0  0  0  0  0  0  0  0  0  0  0
    7.7365    4.6508   21.6987 C   0  0  0  0  0  0  0  0  0  0  0  0
   13.0186   11.0102   18.0020 C   0  0  0  0  0  0  0  0  0  0  0  0
    8.6628    5.7088   21.8871 N   0  0  0  0  0  0  0  0  0  0  0  0
    5.6516    3.5258   21.9140 C   0  0  0  0  0  0  0  0  0  0  0  0
   11.5863    9.6815   19.4539 C   0  0  0  0  0  0  0  0  0  0  0  0
   12.9648    4.1543   20.9205 C   0  0  0  0  0  0  0  0  0  0  0  0
    8.2089    3.6265   20.8929 C   0  0  0  0  0  0  0  0  0  0  0  0
    7.3827    2.5724   20.5432 C   0  0  0  0  0  0  0  0  0  0  0  0
   11.1529    7.2750   20.8025 C   0  0  0  0  0  0  0  0  0  0  0  0
   10.2573    8.3215   20.9827 C   0  0  0  0  0  0  0  0  0  0  0  0
   11.1606    5.9378   21.2366 N   0  0  0  0  0  0  0  0  0  0  0  0
    9.8932   11.6736   19.0677 O   0  0  0  0  0  0  0  0  0  0  0  0
    6.4470    4.5850   22.2321 C   0  0  0  0  0  0  0  0  0  0  0  0
    8.4619    6.9895   22.2968 C   0  0  0  0  0  0  0  0  0  0  0  0
   12.2747    7.5102   20.0420 C   0  0  0  0  0  0  0  0  0  0  0  0
   14.2544    6.2142   19.4191 C   0  0  0  0  0  0  0  0  0  0  0  0
   13.0695    6.3705   20.0375 N   0  0  0  0  0  0  0  0  0  0  0  0
    9.1913    8.0876   21.8361 N   0  0  0  0  0  0  0  0  0  0  0  0
   10.4739    9.4813   20.2889 C   0  0  0  0  0  0  0  0  0  0  0  0
    7.5551    7.1270   23.1200 O   0  0  0  0  0  0  0  0  0  0  0  0
  1 11  4  0
  1 21  4  0
  2  4  1  0
  2  8  1  0
  2 11  1  0
  3 10  4  0
  3 14  4  0
  4  5  1  0
  4 18  2  0
  6 12  1  0
  6 17  4  0
  6 23  4  0
  7  9  1  0
  7 13  4  0
  7 19  4  0
  9 20  1  0
 10 19  4  0
 11 25  4  0
 13 14  4  0
 15 16  4  0
 15 17  4  0
 15 21  4  0
 16 24  1  0
 16 25  4  0
 20 24  1  0
 20 26  2  0
 21 23  4  0
 22 23  1  0
M  END
$$$$

 Created by Python create_sdf_string function

 26 28  0  0  0  0  0  0  0  0999 V2000
   12.4616    8.6700   19.4180 N   0  0  0  0  0  0  0  0  0  0  0  0
   11.8329   10.8148   18.6769 N   0  0  0  0  0  0  0  0  0  0  0  0
    6.1021    2.5564   21.0678 C   0  0  0  0  0  0  0  0  0  0  0  0
   10.9097   11.8051   18.4804 C   0  0  0  0  0  0  0  0  0  0  0  0
   11.2280   12.9135   17.5669 C   0  0  0  0  0  0  0  0  0  0  0  0
   12.3782    5.4231   20.7777 C   0  0  0  0  0  0  0  0  0  0  0  0
    7.7365    4.6508   21.6987 C   0  0  0  0  0  0  0  0  0  0  0  0
   13.0186   11.0102   18.0020 C   0  0  0  0  0  0  0  0  0  0  0  0
    8.6628    5.7088   21.8871 N   0  0  0  0  0  0  0  0  0  0  0  0
    5.6516    3.5258   21.9140 C   0  0  0  0  0  0  0  0  0  0  0  0
   11.5863    9.6815   19.4539 C   0  0  0  0  0  0  0  0  0  0  0  0
   12.9648    4.1543   20.9205 C   0  0  0  0  0  0  0  0  0  0  0  0
    8.2089    3.6265   20.8929 C   0  0  0  0  0  0  0  0  0  0  0  0
    7.3827    2.5724   20.5432 C   0  0  0  0  0  0  0  0  0  0  0  0
   11.1529    7.2750   20.8025 C   0  0  0  0  0  0  0  0  0  0  0  0
   10.2573    8.3215   20.9827 C   0  0  0  0  0  0  0  0  0  0  0  0
   11.1606    5.9378   21.2366 N   0  0  0  0  0  0  0  0  0  0  0  0
    9.8932   11.6736   19.0677 O   0  0  0  0  0  0  0  0  0  0  0  0
    6.4470    4.5850   22.2321 C   0  0  0  0  0  0  0  0  0  0  0  0
    8.4619    6.9895   22.2968 C   0  0  0  0  0  0  0  0  0  0  0  0
   12.2747    7.5102   20.0420 C   0  0  0  0  0  0  0  0  0  0  0  0
   14.2544    6.2142   19.4191 C   0  0  0  0  0  0  0  0  0  0  0  0
   13.0695    6.3705   20.0375 N   0  0  0  0  0  0  0  0  0  0  0  0
    9.1913    8.0876   21.8361 N   0  0  0  0  0  0  0  0  0  0  0  0
   10.4739    9.4813   20.2889 C   0  0  0  0  0  0  0  0  0  0  0  0
    7.5551    7.1270   23.1200 O   0  0  0  0  0  0  0  0  0  0  0  0
  1 11  4  0
  1 21  4  0
  2  4  1  0
  2  8  1  0
  2 11  1  0
  3 10  4  0
  3 14  4  0
  4  5  1  0
  4 18  2  0
  6 12  1  0
  6 17  4  0
  6 23  4  0
  7  9  1  0
  7 13  4  0
  7 19  4  0
  9 20  1  0
 10 19  4  0
 11 25  4  0
 13 14  4  0
 15 16  4  0
 15 17  4  0
 15 21  4  0
 16 24  1  0
 16 25  4  0
 20 24  1  0
 20 26  2  0
 21 23  4  0
 22 23  1  0
M  END
$$$$

 Created by Python create_sdf_string function

 26 28  0  0  0  0  0  0  0  0999 V2000
   12.4616    8.6700   19.4180 N   0  0  0  0  0  0  0  0  0  0  0  0
   11.8329   10.8148   18.6769 N   0  0  0  0  0  0  0  0  0  0  0  0
    6.1021    2.5564   21.0678 C   0  0  0  0  0  0  0  0  0  0  0  0
   10.9097   11.8051   18.4804 C   0  0  0  0  0  0  0  0  0  0  0  0
   11.2280   12.9135   17.5669 C   0  0  0  0  0  0  0  0  0  0  0  0
   12.3782    5.4231   20.7777 C   0  0  0  0  0  0  0  0  0  0  0  0
    7.7365    4.6508   21.6987 C   0  0  0  0  0  0  0  0  0  0  0  0
   13.0186   11.0102   18.0020 C   0  0  0  0  0  0  0  0  0  0  0  0
    8.6628    5.7088   21.8871 N   0  0  0  0  0  0  0  0  0  0  0  0
    5.6516    3.5258   21.9140 C   0  0  0  0  0  0  0  0  0  0  0  0
   11.5863    9.6815   19.4539 C   0  0  0  0  0  0  0  0  0  0  0  0
   12.9648    4.1543   20.9205 C   0  0  0  0  0  0  0  0  0  0  0  0
    8.2089    3.6265   20.8929 C   0  0  0  0  0  0  0  0  0  0  0  0
    7.3827    2.5724   20.5432 C   0  0  0  0  0  0  0  0  0  0  0  0
   11.1529    7.2750   20.8025 C   0  0  0  0  0  0  0  0  0  0  0  0
   10.2573    8.3215   20.9827 C   0  0  0  0  0  0  0  0  0  0  0  0
   11.1606    5.9378   21.2366 N   0  0  0  0  0  0  0  0  0  0  0  0
    9.8932   11.6736   19.0677 O   0  0  0  0  0  0  0  0  0  0  0  0
    6.4470    4.5850   22.2321 C   0  0  0  0  0  0  0  0  0  0  0  0
    8.4619    6.9895   22.2968 C   0  0  0  0  0  0  0  0  0  0  0  0
   12.2747    7.5102   20.0420 C   0  0  0  0  0  0  0  0  0  0  0  0
   14.2544    6.2142   19.4191 C   0  0  0  0  0  0  0  0  0  0  0  0
   13.0695    6.3705   20.0375 N   0  0  0  0  0  0  0  0  0  0  0  0
    9.1913    8.0876   21.8361 N   0  0  0  0  0  0  0  0  0  0  0  0
   10.4739    9.4813   20.2889 C   0  0  0  0  0  0  0  0  0  0  0  0
    7.5551    7.1270   23.1200 O   0  0  0  0  0  0  0  0  0  0  0  0
  1 11  4  0
  1 21  4  0
  2  4  1  0
  2  8  1  0
  2 11  1  0
  3 10  4  0
  3 14  4  0
  4  5  1  0
  4 18  2  0
  6 12  1  0
  6 17  4  0
  6 23  4  0
  7  9  1  0
  7 13  4  0
  7 19  4  0
  9 20  1  0
 10 19  4  0
 11 25  4  0
 13 14  4  0
 15 16  4  0
 15 17  4  0
 15 21  4  0
 16 24  1  0
 16 25  4  0
 20 24  1  0
 20 26  2  0
 21 23  4  0
 22 23  1  0
M  END
$$$$

 Created by Python create_sdf_string function

 26 28  0  0  0  0  0  0  0  0999 V2000
   12.4616    8.6700   19.4180 N   0  0  0  0  0  0  0  0  0  0  0  0
   11.8329   10.8148   18.6769 N   0  0  0  0  0  0  0  0  0  0  0  0
    6.1021    2.5564   21.0678 C   0  0  0  0  0  0  0  0  0  0  0  0
   10.9097   11.8051   18.4804 C   0  0  0  0  0  0  0  0  0  0  0  0
   11.2280   12.9135   17.5669 C   0  0  0  0  0  0  0  0  0  0  0  0
   12.3782    5.4231   20.7777 C   0  0  0  0  0  0  0  0  0  0  0  0
    7.7365    4.6508   21.6987 C   0  0  0  0  0  0  0  0  0  0  0  0
   13.0186   11.0102   18.0020 C   0  0  0  0  0  0  0  0  0  0  0  0
    8.6628    5.7088   21.8871 N   0  0  0  0  0  0  0  0  0  0  0  0
    5.6516    3.5258   21.9140 C   0  0  0  0  0  0  0  0  0  0  0  0
   11.5863    9.6815   19.4539 C   0  0  0  0  0  0  0  0  0  0  0  0
   12.9648    4.1543   20.9205 C   0  0  0  0  0  0  0  0  0  0  0  0
    8.2089    3.6265   20.8929 C   0  0  0  0  0  0  0  0  0  0  0  0
    7.3827    2.5724   20.5432 C   0  0  0  0  0  0  0  0  0  0  0  0
   11.1529    7.2750   20.8025 C   0  0  0  0  0  0  0  0  0  0  0  0
   10.2573    8.3215   20.9827 C   0  0  0  0  0  0  0  0  0  0  0  0
   11.1606    5.9378   21.2366 N   0  0  0  0  0  0  0  0  0  0  0  0
    9.8932   11.6736   19.0677 O   0  0  0  0  0  0  0  0  0  0  0  0
    6.4470    4.5850   22.2321 C   0  0  0  0  0  0  0  0  0  0  0  0
    8.4619    6.9895   22.2968 C   0  0  0  0  0  0  0  0  0  0  0  0
   12.2747    7.5102   20.0420 C   0  0  0  0  0  0  0  0  0  0  0  0
   14.2544    6.2142   19.4191 C   0  0  0  0  0  0  0  0  0  0  0  0
   13.0695    6.3705   20.0375 N   0  0  0  0  0  0  0  0  0  0  0  0
    9.1913    8.0876   21.8361 N   0  0  0  0  0  0  0  0  0  0  0  0
   10.4739    9.4813   20.2889 C   0  0  0  0  0  0  0  0  0  0  0  0
    7.5551    7.1270   23.1200 O   0  0  0  0  0  0  0  0  0  0  0  0
  1 11  4  0
  1 21  4  0
  2  4  1  0
  2  8  1  0
  2 11  1  0
  3 10  4  0
  3 14  4  0
  4  5  1  0
  4 18  2  0
  6 12  1  0
  6 17  4  0
  6 23  4  0
  7  9  1  0
  7 13  4  0
  7 19  4  0
  9 20  1  0
 10 19  4  0
 11 25  4  0
 13 14  4  0
 15 16  4  0
 15 17  4  0
 15 21  4  0
 16 24  1  0
 16 25  4  0
 20 24  1  0
 20 26  2  0
 21 23  4  0
 22 23  1  0
M  END
$$$$

 Created by Python create_sdf_string function

 26 28  0  0  0  0  0  0  0  0999 V2000
   12.4616    8.6700   19.4180 N   0  0  0  0  0  0  0  0  0  0  0  0
   11.8329   10.8148   18.6769 N   0  0  0  0  0  0  0  0  0  0  0  0
    6.1021    2.5564   21.0678 C   0  0  0  0  0  0  0  0  0  0  0  0
   10.9097   11.8051   18.4804 C   0  0  0  0  0  0  0  0  0  0  0  0
   11.2280   12.9135   17.5669 C   0  0  0  0  0  0  0  0  0  0  0  0
   12.3782    5.4231   20.7777 C   0  0  0  0  0  0  0  0  0  0  0  0
    7.7365    4.6508   21.6987 C   0  0  0  0  0  0  0  0  0  0  0  0
   13.0186   11.0102   18.0020 C   0  0  0  0  0  0  0  0  0  0  0  0
    8.6628    5.7088   21.8871 N   0  0  0  0  0  0  0  0  0  0  0  0
    5.6516    3.5258   21.9140 C   0  0  0  0  0  0  0  0  0  0  0  0
   11.5863    9.6815   19.4539 C   0  0  0  0  0  0  0  0  0  0  0  0
   12.9648    4.1543   20.9205 C   0  0  0  0  0  0  0  0  0  0  0  0
    8.2089    3.6265   20.8929 C   0  0  0  0  0  0  0  0  0  0  0  0
    7.3827    2.5724   20.5432 C   0  0  0  0  0  0  0  0  0  0  0  0
   11.1529    7.2750   20.8025 C   0  0  0  0  0  0  0  0  0  0  0  0
   10.2573    8.3215   20.9827 C   0  0  0  0  0  0  0  0  0  0  0  0
   11.1606    5.9378   21.2366 N   0  0  0  0  0  0  0  0  0  0  0  0
    9.8932   11.6736   19.0677 O   0  0  0  0  0  0  0  0  0  0  0  0
    6.4470    4.5850   22.2321 C   0  0  0  0  0  0  0  0  0  0  0  0
    8.4619    6.9895   22.2968 C   0  0  0  0  0  0  0  0  0  0  0  0
   12.2747    7.5102   20.0420 C   0  0  0  0  0  0  0  0  0  0  0  0
   14.2544    6.2142   19.4191 C   0  0  0  0  0  0  0  0  0  0  0  0
   13.0695    6.3705   20.0375 N   0  0  0  0  0  0  0  0  0  0  0  0
    9.1913    8.0876   21.8361 N   0  0  0  0  0  0  0  0  0  0  0  0
   10.4739    9.4813   20.2889 C   0  0  0  0  0  0  0  0  0  0  0  0
    7.5551    7.1270   23.1200 O   0  0  0  0  0  0  0  0  0  0  0  0
  1 11  4  0
  1 21  4  0
  2  4  1  0
  2  8  1  0
  2 11  1  0
  3 10  4  0
  3 14  4  0
  4  5  1  0
  4 18  2  0
  6 12  1  0
  6 17  4  0
  6 23  4  0
  7  9  1  0
  7 13  4  0
  7 19  4  0
  9 20  1  0
 10 19  4  0
 11 25  4  0
 13 14  4  0
 15 16  4  0
 15 17  4  0
 15 21  4  0
 16 24  1  0
 16 25  4  0
 20 24  1  0
 20 26  2  0
 21 23  4  0
 22 23  1  0
M  END
$$$$

 Created by Python create_sdf_string function

 26 28  0  0  0  0  0  0  0  0999 V2000
   12.4616    8.6700   19.4180 N   0  0  0  0  0  0  0  0  0  0  0  0
   11.8329   10.8148   18.6769 N   0  0  0  0  0  0  0  0  0  0  0  0
    6.1021    2.5564   21.0678 C   0  0  0  0  0  0  0  0  0  0  0  0
   10.9097   11.8051   18.4804 C   0  0  0  0  0  0  0  0  0  0  0  0
   11.2280   12.9135   17.5669 C   0  0  0  0  0  0  0  0  0  0  0  0
   12.3782    5.4231   20.7777 C   0  0  0  0  0  0  0  0  0  0  0  0
    7.7365    4.6508   21.6987 C   0  0  0  0  0  0  0  0  0  0  0  0
   13.0186   11.0102   18.0020 C   0  0  0  0  0  0  0  0  0  0  0  0
    8.6628    5.7088   21.8871 N   0  0  0  0  0  0  0  0  0  0  0  0
    5.6516    3.5258   21.9140 C   0  0  0  0  0  0  0  0  0  0  0  0
   11.5863    9.6815   19.4539 C   0  0  0  0  0  0  0  0  0  0  0  0
   12.9648    4.1543   20.9205 C   0  0  0  0  0  0  0  0  0  0  0  0
    8.2089    3.6265   20.8929 C   0  0  0  0  0  0  0  0  0  0  0  0
    7.3827    2.5724   20.5432 C   0  0  0  0  0  0  0  0  0  0  0  0
   11.1529    7.2750   20.8025 C   0  0  0  0  0  0  0  0  0  0  0  0
   10.2573    8.3215   20.9827 C   0  0  0  0  0  0  0  0  0  0  0  0
   11.1606    5.9378   21.2366 N   0  0  0  0  0  0  0  0  0  0  0  0
    9.8932   11.6736   19.0677 O   0  0  0  0  0  0  0  0  0  0  0  0
    6.4470    4.5850   22.2321 C   0  0  0  0  0  0  0  0  0  0  0  0
    8.4619    6.9895   22.2968 C   0  0  0  0  0  0  0  0  0  0  0  0
   12.2747    7.5102   20.0420 C   0  0  0  0  0  0  0  0  0  0  0  0
   14.2544    6.2142   19.4191 C   0  0  0  0  0  0  0  0  0  0  0  0
   13.0695    6.3705   20.0375 N   0  0  0  0  0  0  0  0  0  0  0  0
    9.1913    8.0876   21.8361 N   0  0  0  0  0  0  0  0  0  0  0  0
   10.4739    9.4813   20.2889 C   0  0  0  0  0  0  0  0  0  0  0  0
    7.5551    7.1270   23.1200 O   0  0  0  0  0  0  0  0  0  0  0  0
  1 11  4  0
  1 21  4  0
  2  4  1  0
  2  8  1  0
  2 11  1  0
  3 10  4  0
  3 14  4  0
  4  5  1  0
  4 18  2  0
  6 12  1  0
  6 17  4  0
  6 23  4  0
  7  9  1  0
  7 13  4  0
  7 19  4  0
  9 20  1  0
 10 19  4  0
 11 25  4  0
 13 14  4  0
 15 16  4  0
 15 17  4  0
 15 21  4  0
 16 24  1  0
 16 25  4  0
 20 24  1  0
 20 26  2  0
 21 23  4  0
 22 23  1  0
M  END
$$$$

 Created by Python create_sdf_string function

 26 28  0  0  0  0  0  0  0  0999 V2000
   12.4616    8.6700   19.4180 N   0  0  0  0  0  0  0  0  0  0  0  0
   11.8329   10.8148   18.6769 N   0  0  0  0  0  0  0  0  0  0  0  0
    6.1021    2.5564   21.0678 C   0  0  0  0  0  0  0  0  0  0  0  0
   10.9097   11.8051   18.4804 C   0  0  0  0  0  0  0  0  0  0  0  0
   11.2280   12.9135   17.5669 C   0  0  0  0  0  0  0  0  0  0  0  0
   12.3782    5.4231   20.7777 C   0  0  0  0  0  0  0  0  0  0  0  0
    7.7365    4.6508   21.6987 C   0  0  0  0  0  0  0  0  0  0  0  0
   13.0186   11.0102   18.0020 C   0  0  0  0  0  0  0  0  0  0  0  0
    8.6628    5.7088   21.8871 N   0  0  0  0  0  0  0  0  0  0  0  0
    5.6516    3.5258   21.9140 C   0  0  0  0  0  0  0  0  0  0  0  0
   11.5863    9.6815   19.4539 C   0  0  0  0  0  0  0  0  0  0  0  0
   12.9648    4.1543   20.9205 C   0  0  0  0  0  0  0  0  0  0  0  0
    8.2089    3.6265   20.8929 C   0  0  0  0  0  0  0  0  0  0  0  0
    7.3827    2.5724   20.5432 C   0  0  0  0  0  0  0  0  0  0  0  0
   11.1529    7.2750   20.8025 C   0  0  0  0  0  0  0  0  0  0  0  0
   10.2573    8.3215   20.9827 C   0  0  0  0  0  0  0  0  0  0  0  0
   11.1606    5.9378   21.2366 N   0  0  0  0  0  0  0  0  0  0  0  0
    9.8932   11.6736   19.0677 O   0  0  0  0  0  0  0  0  0  0  0  0
    6.4470    4.5850   22.2321 C   0  0  0  0  0  0  0  0  0  0  0  0
    8.4619    6.9895   22.2968 C   0  0  0  0  0  0  0  0  0  0  0  0
   12.2747    7.5102   20.0420 C   0  0  0  0  0  0  0  0  0  0  0  0
   14.2544    6.2142   19.4191 C   0  0  0  0  0  0  0  0  0  0  0  0
   13.0695    6.3705   20.0375 N   0  0  0  0  0  0  0  0  0  0  0  0
    9.1913    8.0876   21.8361 N   0  0  0  0  0  0  0  0  0  0  0  0
   10.4739    9.4813   20.2889 C   0  0  0  0  0  0  0  0  0  0  0  0
    7.5551    7.1270   23.1200 O   0  0  0  0  0  0  0  0  0  0  0  0
  1 11  4  0
  1 21  4  0
  2  4  1  0
  2  8  1  0
  2 11  1  0
  3 10  4  0
  3 14  4  0
  4  5  1  0
  4 18  2  0
  6 12  1  0
  6 17  4  0
  6 23  4  0
  7  9  1  0
  7 13  4  0
  7 19  4  0
  9 20  1  0
 10 19  4  0
 11 25  4  0
 13 14  4  0
 15 16  4  0
 15 17  4  0
 15 21  4  0
 16 24  1  0
 16 25  4  0
 20 24  1  0
 20 26  2  0
 21 23  4  0
 22 23  1  0
M  END
$$$$

 Created by Python create_sdf_string function

 26 28  0  0  0  0  0  0  0  0999 V2000
   12.4616    8.6700   19.4180 N   0  0  0  0  0  0  0  0  0  0  0  0
   11.8329   10.8148   18.6769 N   0  0  0  0  0  0  0  0  0  0  0  0
    6.1021    2.5564   21.0678 C   0  0  0  0  0  0  0  0  0  0  0  0
   10.9097   11.8051   18.4804 C   0  0  0  0  0  0  0  0  0  0  0  0
   11.2280   12.9135   17.5669 C   0  0  0  0  0  0  0  0  0  0  0  0
   12.3782    5.4231   20.7777 C   0  0  0  0  0  0  0  0  0  0  0  0
    7.7365    4.6508   21.6987 C   0  0  0  0  0  0  0  0  0  0  0  0
   13.0186   11.0102   18.0020 C   0  0  0  0  0  0  0  0  0  0  0  0
    8.6628    5.7088   21.8871 N   0  0  0  0  0  0  0  0  0  0  0  0
    5.6516    3.5258   21.9140 C   0  0  0  0  0  0  0  0  0  0  0  0
   11.5863    9.6815   19.4539 C   0  0  0  0  0  0  0  0  0  0  0  0
   12.9648    4.1543   20.9205 C   0  0  0  0  0  0  0  0  0  0  0  0
    8.2089    3.6265   20.8929 C   0  0  0  0  0  0  0  0  0  0  0  0
    7.3827    2.5724   20.5432 C   0  0  0  0  0  0  0  0  0  0  0  0
   11.1529    7.2750   20.8025 C   0  0  0  0  0  0  0  0  0  0  0  0
   10.2573    8.3215   20.9827 C   0  0  0  0  0  0  0  0  0  0  0  0
   11.1606    5.9378   21.2366 N   0  0  0  0  0  0  0  0  0  0  0  0
    9.8932   11.6736   19.0677 O   0  0  0  0  0  0  0  0  0  0  0  0
    6.4470    4.5850   22.2321 C   0  0  0  0  0  0  0  0  0  0  0  0
    8.4619    6.9895   22.2968 C   0  0  0  0  0  0  0  0  0  0  0  0
   12.2747    7.5102   20.0420 C   0  0  0  0  0  0  0  0  0  0  0  0
   14.2544    6.2142   19.4191 C   0  0  0  0  0  0  0  0  0  0  0  0
   13.0695    6.3705   20.0375 N   0  0  0  0  0  0  0  0  0  0  0  0
    9.1913    8.0876   21.8361 N   0  0  0  0  0  0  0  0  0  0  0  0
   10.4739    9.4813   20.2889 C   0  0  0  0  0  0  0  0  0  0  0  0
    7.5551    7.1270   23.1200 O   0  0  0  0  0  0  0  0  0  0  0  0
  1 11  4  0
  1 21  4  0
  2  4  1  0
  2  8  1  0
  2 11  1  0
  3 10  4  0
  3 14  4  0
  4  5  1  0
  4 18  2  0
  6 12  1  0
  6 17  4  0
  6 23  4  0
  7  9  1  0
  7 13  4  0
  7 19  4  0
  9 20  1  0
 10 19  4  0
 11 25  4  0
 13 14  4  0
 15 16  4  0
 15 17  4  0
 15 21  4  0
 16 24  1  0
 16 25  4  0
 20 24  1  0
 20 26  2  0
 21 23  4  0
 22 23  1  0
M  END
$$$$

 Created by Python create_sdf_string function

 26 28  0  0  0  0  0  0  0  0999 V2000
   12.4616    8.6700   19.4180 N   0  0  0  0  0  0  0  0  0  0  0  0
   11.8329   10.8148   18.6769 N   0  0  0  0  0  0  0  0  0  0  0  0
    6.1021    2.5564   21.0678 C   0  0  0  0  0  0  0  0  0  0  0  0
   10.9097   11.8051   18.4804 C   0  0  0  0  0  0  0  0  0  0  0  0
   11.2280   12.9135   17.5669 C   0  0  0  0  0  0  0  0  0  0  0  0
   12.3782    5.4231   20.7777 C   0  0  0  0  0  0  0  0  0  0  0  0
    7.7365    4.6508   21.6987 C   0  0  0  0  0  0  0  0  0  0  0  0
   13.0186   11.0102   18.0020 C   0  0  0  0  0  0  0  0  0  0  0  0
    8.6628    5.7088   21.8871 N   0  0  0  0  0  0  0  0  0  0  0  0
    5.6516    3.5258   21.9140 C   0  0  0  0  0  0  0  0  0  0  0  0
   11.5863    9.6815   19.4539 C   0  0  0  0  0  0  0  0  0  0  0  0
   12.9648    4.1543   20.9205 C   0  0  0  0  0  0  0  0  0  0  0  0
    8.2089    3.6265   20.8929 C   0  0  0  0  0  0  0  0  0  0  0  0
    7.3827    2.5724   20.5432 C   0  0  0  0  0  0  0  0  0  0  0  0
   11.1529    7.2750   20.8025 C   0  0  0  0  0  0  0  0  0  0  0  0
   10.2573    8.3215   20.9827 C   0  0  0  0  0  0  0  0  0  0  0  0
   11.1606    5.9378   21.2366 N   0  0  0  0  0  0  0  0  0  0  0  0
    9.8932   11.6736   19.0677 O   0  0  0  0  0  0  0  0  0  0  0  0
    6.4470    4.5850   22.2321 C   0  0  0  0  0  0  0  0  0  0  0  0
    8.4619    6.9895   22.2968 C   0  0  0  0  0  0  0  0  0  0  0  0
   12.2747    7.5102   20.0420 C   0  0  0  0  0  0  0  0  0  0  0  0
   14.2544    6.2142   19.4191 C   0  0  0  0  0  0  0  0  0  0  0  0
   13.0695    6.3705   20.0375 N   0  0  0  0  0  0  0  0  0  0  0  0
    9.1913    8.0876   21.8361 N   0  0  0  0  0  0  0  0  0  0  0  0
   10.4739    9.4813   20.2889 C   0  0  0  0  0  0  0  0  0  0  0  0
    7.5551    7.1270   23.1200 O   0  0  0  0  0  0  0  0  0  0  0  0
  1 11  4  0
  1 21  4  0
  2  4  1  0
  2  8  1  0
  2 11  1  0
  3 10  4  0
  3 14  4  0
  4  5  1  0
  4 18  2  0
  6 12  1  0
  6 17  4  0
  6 23  4  0
  7  9  1  0
  7 13  4  0
  7 19  4  0
  9 20  1  0
 10 19  4  0
 11 25  4  0
 13 14  4  0
 15 16  4  0
 15 17  4  0
 15 21  4  0
 16 24  1  0
 16 25  4  0
 20 24  1  0
 20 26  2  0
 21 23  4  0
 22 23  1  0
M  END
$$$$

 Created by Python create_sdf_string function

 26 28  0  0  0  0  0  0  0  0999 V2000
   12.4616    8.6700   19.4180 N   0  0  0  0  0  0  0  0  0  0  0  0
   11.8329   10.8148   18.6769 N   0  0  0  0  0  0  0  0  0  0  0  0
    6.1021    2.5564   21.0678 C   0  0  0  0  0  0  0  0  0  0  0  0
   10.9097   11.8051   18.4804 C   0  0  0  0  0  0  0  0  0  0  0  0
   11.2280   12.9135   17.5669 C   0  0  0  0  0  0  0  0  0  0  0  0
   12.3782    5.4231   20.7777 C   0  0  0  0  0  0  0  0  0  0  0  0
    7.7365    4.6508   21.6987 C   0  0  0  0  0  0  0  0  0  0  0  0
   13.0186   11.0102   18.0020 C   0  0  0  0  0  0  0  0  0  0  0  0
    8.6628    5.7088   21.8871 N   0  0  0  0  0  0  0  0  0  0  0  0
    5.6516    3.5258   21.9140 C   0  0  0  0  0  0  0  0  0  0  0  0
   11.5863    9.6815   19.4539 C   0  0  0  0  0  0  0  0  0  0  0  0
   12.9648    4.1543   20.9205 C   0  0  0  0  0  0  0  0  0  0  0  0
    8.2089    3.6265   20.8929 C   0  0  0  0  0  0  0  0  0  0  0  0
    7.3827    2.5724   20.5432 C   0  0  0  0  0  0  0  0  0  0  0  0
   11.1529    7.2750   20.8025 C   0  0  0  0  0  0  0  0  0  0  0  0
   10.2573    8.3215   20.9827 C   0  0  0  0  0  0  0  0  0  0  0  0
   11.1606    5.9378   21.2366 N   0  0  0  0  0  0  0  0  0  0  0  0
    9.8932   11.6736   19.0677 O   0  0  0  0  0  0  0  0  0  0  0  0
    6.4470    4.5850   22.2321 C   0  0  0  0  0  0  0  0  0  0  0  0
    8.4619    6.9895   22.2968 C   0  0  0  0  0  0  0  0  0  0  0  0
   12.2747    7.5102   20.0420 C   0  0  0  0  0  0  0  0  0  0  0  0
   14.2544    6.2142   19.4191 C   0  0  0  0  0  0  0  0  0  0  0  0
   13.0695    6.3705   20.0375 N   0  0  0  0  0  0  0  0  0  0  0  0
    9.1913    8.0876   21.8361 N   0  0  0  0  0  0  0  0  0  0  0  0
   10.4739    9.4813   20.2889 C   0  0  0  0  0  0  0  0  0  0  0  0
    7.5551    7.1270   23.1200 O   0  0  0  0  0  0  0  0  0  0  0  0
  1 11  4  0
  1 21  4  0
  2  4  1  0
  2  8  1  0
  2 11  1  0
  3 10  4  0
  3 14  4  0
  4  5  1  0
  4 18  2  0
  6 12  1  0
  6 17  4  0
  6 23  4  0
  7  9  1  0
  7 13  4  0
  7 19  4  0
  9 20  1  0
 10 19  4  0
 11 25  4  0
 13 14  4  0
 15 16  4  0
 15 17  4  0
 15 21  4  0
 16 24  1  0
 16 25  4  0
 20 24  1  0
 20 26  2  0
 21 23  4  0
 22 23  1  0
M  END
$$$$

 Created by Python create_sdf_string function

 26 28  0  0  0  0  0  0  0  0999 V2000
   12.4616    8.6700   19.4180 N   0  0  0  0  0  0  0  0  0  0  0  0
   11.8329   10.8148   18.6769 N   0  0  0  0  0  0  0  0  0  0  0  0
    6.1021    2.5564   21.0678 C   0  0  0  0  0  0  0  0  0  0  0  0
   10.9097   11.8051   18.4804 C   0  0  0  0  0  0  0  0  0  0  0  0
   11.2280   12.9135   17.5669 C   0  0  0  0  0  0  0  0  0  0  0  0
   12.3782    5.4231   20.7777 C   0  0  0  0  0  0  0  0  0  0  0  0
    7.7365    4.6508   21.6987 C   0  0  0  0  0  0  0  0  0  0  0  0
   13.0186   11.0102   18.0020 C   0  0  0  0  0  0  0  0  0  0  0  0
    8.6628    5.7088   21.8871 N   0  0  0  0  0  0  0  0  0  0  0  0
    5.6516    3.5258   21.9140 C   0  0  0  0  0  0  0  0  0  0  0  0
   11.5863    9.6815   19.4539 C   0  0  0  0  0  0  0  0  0  0  0  0
   12.9648    4.1543   20.9205 C   0  0  0  0  0  0  0  0  0  0  0  0
    8.2089    3.6265   20.8929 C   0  0  0  0  0  0  0  0  0  0  0  0
    7.3827    2.5724   20.5432 C   0  0  0  0  0  0  0  0  0  0  0  0
   11.1529    7.2750   20.8025 C   0  0  0  0  0  0  0  0  0  0  0  0
   10.2573    8.3215   20.9827 C   0  0  0  0  0  0  0  0  0  0  0  0
   11.1606    5.9378   21.2366 N   0  0  0  0  0  0  0  0  0  0  0  0
    9.8932   11.6736   19.0677 O   0  0  0  0  0  0  0  0  0  0  0  0
    6.4470    4.5850   22.2321 C   0  0  0  0  0  0  0  0  0  0  0  0
    8.4619    6.9895   22.2968 C   0  0  0  0  0  0  0  0  0  0  0  0
   12.2747    7.5102   20.0420 C   0  0  0  0  0  0  0  0  0  0  0  0
   14.2544    6.2142   19.4191 C   0  0  0  0  0  0  0  0  0  0  0  0
   13.0695    6.3705   20.0375 N   0  0  0  0  0  0  0  0  0  0  0  0
    9.1913    8.0876   21.8361 N   0  0  0  0  0  0  0  0  0  0  0  0
   10.4739    9.4813   20.2889 C   0  0  0  0  0  0  0  0  0  0  0  0
    7.5551    7.1270   23.1200 O   0  0  0  0  0  0  0  0  0  0  0  0
  1 11  4  0
  1 21  4  0
  2  4  1  0
  2  8  1  0
  2 11  1  0
  3 10  4  0
  3 14  4  0
  4  5  1  0
  4 18  2  0
  6 12  1  0
  6 17  4  0
  6 23  4  0
  7  9  1  0
  7 13  4  0
  7 19  4  0
  9 20  1  0
 10 19  4  0
 11 25  4  0
 13 14  4  0
 15 16  4  0
 15 17  4  0
 15 21  4  0
 16 24  1  0
 16 25  4  0
 20 24  1  0
 20 26  2  0
 21 23  4  0
 22 23  1  0
M  END
$$$$

 Created by Python create_sdf_string function

 26 28  0  0  0  0  0  0  0  0999 V2000
   12.4616    8.6700   19.4180 N   0  0  0  0  0  0  0  0  0  0  0  0
   11.8329   10.8148   18.6769 N   0  0  0  0  0  0  0  0  0  0  0  0
    6.1021    2.5564   21.0678 C   0  0  0  0  0  0  0  0  0  0  0  0
   10.9097   11.8051   18.4804 C   0  0  0  0  0  0  0  0  0  0  0  0
   11.2280   12.9135   17.5669 C   0  0  0  0  0  0  0  0  0  0  0  0
   12.3782    5.4231   20.7777 C   0  0  0  0  0  0  0  0  0  0  0  0
    7.7365    4.6508   21.6987 C   0  0  0  0  0  0  0  0  0  0  0  0
   13.0186   11.0102   18.0020 C   0  0  0  0  0  0  0  0  0  0  0  0
    8.6628    5.7088   21.8871 N   0  0  0  0  0  0  0  0  0  0  0  0
    5.6516    3.5258   21.9140 C   0  0  0  0  0  0  0  0  0  0  0  0
   11.5863    9.6815   19.4539 C   0  0  0  0  0  0  0  0  0  0  0  0
   12.9648    4.1543   20.9205 C   0  0  0  0  0  0  0  0  0  0  0  0
    8.2089    3.6265   20.8929 C   0  0  0  0  0  0  0  0  0  0  0  0
    7.3827    2.5724   20.5432 C   0  0  0  0  0  0  0  0  0  0  0  0
   11.1529    7.2750   20.8025 C   0  0  0  0  0  0  0  0  0  0  0  0
   10.2573    8.3215   20.9827 C   0  0  0  0  0  0  0  0  0  0  0  0
   11.1606    5.9378   21.2366 N   0  0  0  0  0  0  0  0  0  0  0  0
    9.8932   11.6736   19.0677 O   0  0  0  0  0  0  0  0  0  0  0  0
    6.4470    4.5850   22.2321 C   0  0  0  0  0  0  0  0  0  0  0  0
    8.4619    6.9895   22.2968 C   0  0  0  0  0  0  0  0  0  0  0  0
   12.2747    7.5102   20.0420 C   0  0  0  0  0  0  0  0  0  0  0  0
   14.2544    6.2142   19.4191 C   0  0  0  0  0  0  0  0  0  0  0  0
   13.0695    6.3705   20.0375 N   0  0  0  0  0  0  0  0  0  0  0  0
    9.1913    8.0876   21.8361 N   0  0  0  0  0  0  0  0  0  0  0  0
   10.4739    9.4813   20.2889 C   0  0  0  0  0  0  0  0  0  0  0  0
    7.5551    7.1270   23.1200 O   0  0  0  0  0  0  0  0  0  0  0  0
  1 11  4  0
  1 21  4  0
  2  4  1  0
  2  8  1  0
  2 11  1  0
  3 10  4  0
  3 14  4  0
  4  5  1  0
  4 18  2  0
  6 12  1  0
  6 17  4  0
  6 23  4  0
  7  9  1  0
  7 13  4  0
  7 19  4  0
  9 20  1  0
 10 19  4  0
 11 25  4  0
 13 14  4  0
 15 16  4  0
 15 17  4  0
 15 21  4  0
 16 24  1  0
 16 25  4  0
 20 24  1  0
 20 26  2  0
 21 23  4  0
 22 23  1  0
M  END
$$$$

 Created by Python create_sdf_string function

 26 28  0  0  0  0  0  0  0  0999 V2000
   12.4616    8.6700   19.4180 N   0  0  0  0  0  0  0  0  0  0  0  0
   11.8329   10.8148   18.6769 N   0  0  0  0  0  0  0  0  0  0  0  0
    6.1021    2.5564   21.0678 C   0  0  0  0  0  0  0  0  0  0  0  0
   10.9097   11.8051   18.4804 C   0  0  0  0  0  0  0  0  0  0  0  0
   11.2280   12.9135   17.5669 C   0  0  0  0  0  0  0  0  0  0  0  0
   12.3782    5.4231   20.7777 C   0  0  0  0  0  0  0  0  0  0  0  0
    7.7365    4.6508   21.6987 C   0  0  0  0  0  0  0  0  0  0  0  0
   13.0186   11.0102   18.0020 C   0  0  0  0  0  0  0  0  0  0  0  0
    8.6628    5.7088   21.8871 N   0  0  0  0  0  0  0  0  0  0  0  0
    5.6516    3.5258   21.9140 C   0  0  0  0  0  0  0  0  0  0  0  0
   11.5863    9.6815   19.4539 C   0  0  0  0  0  0  0  0  0  0  0  0
   12.9648    4.1543   20.9205 C   0  0  0  0  0  0  0  0  0  0  0  0
    8.2089    3.6265   20.8929 C   0  0  0  0  0  0  0  0  0  0  0  0
    7.3827    2.5724   20.5432 C   0  0  0  0  0  0  0  0  0  0  0  0
   11.1529    7.2750   20.8025 C   0  0  0  0  0  0  0  0  0  0  0  0
   10.2573    8.3215   20.9827 C   0  0  0  0  0  0  0  0  0  0  0  0
   11.1606    5.9378   21.2366 N   0  0  0  0  0  0  0  0  0  0  0  0
    9.8932   11.6736   19.0677 O   0  0  0  0  0  0  0  0  0  0  0  0
    6.4470    4.5850   22.2321 C   0  0  0  0  0  0  0  0  0  0  0  0
    8.4619    6.9895   22.2968 C   0  0  0  0  0  0  0  0  0  0  0  0
   12.2747    7.5102   20.0420 C   0  0  0  0  0  0  0  0  0  0  0  0
   14.2544    6.2142   19.4191 C   0  0  0  0  0  0  0  0  0  0  0  0
   13.0695    6.3705   20.0375 N   0  0  0  0  0  0  0  0  0  0  0  0
    9.1913    8.0876   21.8361 N   0  0  0  0  0  0  0  0  0  0  0  0
   10.4739    9.4813   20.2889 C   0  0  0  0  0  0  0  0  0  0  0  0
    7.5551    7.1270   23.1200 O   0  0  0  0  0  0  0  0  0  0  0  0
  1 11  4  0
  1 21  4  0
  2  4  1  0
  2  8  1  0
  2 11  1  0
  3 10  4  0
  3 14  4  0
  4  5  1  0
  4 18  2  0
  6 12  1  0
  6 17  4  0
  6 23  4  0
  7  9  1  0
  7 13  4  0
  7 19  4  0
  9 20  1  0
 10 19  4  0
 11 25  4  0
 13 14  4  0
 15 16  4  0
 15 17  4  0
 15 21  4  0
 16 24  1  0
 16 25  4  0
 20 24  1  0
 20 26  2  0
 21 23  4  0
 22 23  1  0
M  END
$$$$

 Created by Python create_sdf_string function

 26 28  0  0  0  0  0  0  0  0999 V2000
   12.4616    8.6700   19.4180 N   0  0  0  0  0  0  0  0  0  0  0  0
   11.8329   10.8148   18.6769 N   0  0  0  0  0  0  0  0  0  0  0  0
    6.1021    2.5564   21.0678 C   0  0  0  0  0  0  0  0  0  0  0  0
   10.9097   11.8051   18.4804 C   0  0  0  0  0  0  0  0  0  0  0  0
   11.2280   12.9135   17.5669 C   0  0  0  0  0  0  0  0  0  0  0  0
   12.3782    5.4231   20.7777 C   0  0  0  0  0  0  0  0  0  0  0  0
    7.7365    4.6508   21.6987 C   0  0  0  0  0  0  0  0  0  0  0  0
   13.0186   11.0102   18.0020 C   0  0  0  0  0  0  0  0  0  0  0  0
    8.6628    5.7088   21.8871 N   0  0  0  0  0  0  0  0  0  0  0  0
    5.6516    3.5258   21.9140 C   0  0  0  0  0  0  0  0  0  0  0  0
   11.5863    9.6815   19.4539 C   0  0  0  0  0  0  0  0  0  0  0  0
   12.9648    4.1543   20.9205 C   0  0  0  0  0  0  0  0  0  0  0  0
    8.2089    3.6265   20.8929 C   0  0  0  0  0  0  0  0  0  0  0  0
    7.3827    2.5724   20.5432 C   0  0  0  0  0  0  0  0  0  0  0  0
   11.1529    7.2750   20.8025 C   0  0  0  0  0  0  0  0  0  0  0  0
   10.2573    8.3215   20.9827 C   0  0  0  0  0  0  0  0  0  0  0  0
   11.1606    5.9378   21.2366 N   0  0  0  0  0  0  0  0  0  0  0  0
    9.8932   11.6736   19.0677 O   0  0  0  0  0  0  0  0  0  0  0  0
    6.4470    4.5850   22.2321 C   0  0  0  0  0  0  0  0  0  0  0  0
    8.4619    6.9895   22.2968 C   0  0  0  0  0  0  0  0  0  0  0  0
   12.2747    7.5102   20.0420 C   0  0  0  0  0  0  0  0  0  0  0  0
   14.2544    6.2142   19.4191 C   0  0  0  0  0  0  0  0  0  0  0  0
   13.0695    6.3705   20.0375 N   0  0  0  0  0  0  0  0  0  0  0  0
    9.1913    8.0876   21.8361 N   0  0  0  0  0  0  0  0  0  0  0  0
   10.4739    9.4813   20.2889 C   0  0  0  0  0  0  0  0  0  0  0  0
    7.5551    7.1270   23.1200 O   0  0  0  0  0  0  0  0  0  0  0  0
  1 11  4  0
  1 21  4  0
  2  4  1  0
  2  8  1  0
  2 11  1  0
  3 10  4  0
  3 14  4  0
  4  5  1  0
  4 18  2  0
  6 12  1  0
  6 17  4  0
  6 23  4  0
  7  9  1  0
  7 13  4  0
  7 19  4  0
  9 20  1  0
 10 19  4  0
 11 25  4  0
 13 14  4  0
 15 16  4  0
 15 17  4  0
 15 21  4  0
 16 24  1  0
 16 25  4  0
 20 24  1  0
 20 26  2  0
 21 23  4  0
 22 23  1  0
M  END
$$$$

 Created by Python create_sdf_string function

 26 28  0  0  0  0  0  0  0  0999 V2000
   12.4616    8.6700   19.4180 N   0  0  0  0  0  0  0  0  0  0  0  0
   11.8329   10.8148   18.6769 N   0  0  0  0  0  0  0  0  0  0  0  0
    6.1021    2.5564   21.0678 C   0  0  0  0  0  0  0  0  0  0  0  0
   10.9097   11.8051   18.4804 C   0  0  0  0  0  0  0  0  0  0  0  0
   11.2280   12.9135   17.5669 C   0  0  0  0  0  0  0  0  0  0  0  0
   12.3782    5.4231   20.7777 C   0  0  0  0  0  0  0  0  0  0  0  0
    7.7365    4.6508   21.6987 C   0  0  0  0  0  0  0  0  0  0  0  0
   13.0186   11.0102   18.0020 C   0  0  0  0  0  0  0  0  0  0  0  0
    8.6628    5.7088   21.8871 N   0  0  0  0  0  0  0  0  0  0  0  0
    5.6516    3.5258   21.9140 C   0  0  0  0  0  0  0  0  0  0  0  0
   11.5863    9.6815   19.4539 C   0  0  0  0  0  0  0  0  0  0  0  0
   12.9648    4.1543   20.9205 C   0  0  0  0  0  0  0  0  0  0  0  0
    8.2089    3.6265   20.8929 C   0  0  0  0  0  0  0  0  0  0  0  0
    7.3827    2.5724   20.5432 C   0  0  0  0  0  0  0  0  0  0  0  0
   11.1529    7.2750   20.8025 C   0  0  0  0  0  0  0  0  0  0  0  0
   10.2573    8.3215   20.9827 C   0  0  0  0  0  0  0  0  0  0  0  0
   11.1606    5.9378   21.2366 N   0  0  0  0  0  0  0  0  0  0  0  0
    9.8932   11.6736   19.0677 O   0  0  0  0  0  0  0  0  0  0  0  0
    6.4470    4.5850   22.2321 C   0  0  0  0  0  0  0  0  0  0  0  0
    8.4619    6.9895   22.2968 C   0  0  0  0  0  0  0  0  0  0  0  0
   12.2747    7.5102   20.0420 C   0  0  0  0  0  0  0  0  0  0  0  0
   14.2544    6.2142   19.4191 C   0  0  0  0  0  0  0  0  0  0  0  0
   13.0695    6.3705   20.0375 N   0  0  0  0  0  0  0  0  0  0  0  0
    9.1913    8.0876   21.8361 N   0  0  0  0  0  0  0  0  0  0  0  0
   10.4739    9.4813   20.2889 C   0  0  0  0  0  0  0  0  0  0  0  0
    7.5551    7.1270   23.1200 O   0  0  0  0  0  0  0  0  0  0  0  0
  1 11  4  0
  1 21  4  0
  2  4  1  0
  2  8  1  0
  2 11  1  0
  3 10  4  0
  3 14  4  0
  4  5  1  0
  4 18  2  0
  6 12  1  0
  6 17  4  0
  6 23  4  0
  7  9  1  0
  7 13  4  0
  7 19  4  0
  9 20  1  0
 10 19  4  0
 11 25  4  0
 13 14  4  0
 15 16  4  0
 15 17  4  0
 15 21  4  0
 16 24  1  0
 16 25  4  0
 20 24  1  0
 20 26  2  0
 21 23  4  0
 22 23  1  0
M  END
$$$$

 Created by Python create_sdf_string function

 26 28  0  0  0  0  0  0  0  0999 V2000
   12.4616    8.6700   19.4180 N   0  0  0  0  0  0  0  0  0  0  0  0
   11.8329   10.8148   18.6769 N   0  0  0  0  0  0  0  0  0  0  0  0
    6.1021    2.5564   21.0678 C   0  0  0  0  0  0  0  0  0  0  0  0
   10.9097   11.8051   18.4804 C   0  0  0  0  0  0  0  0  0  0  0  0
   11.2280   12.9135   17.5669 C   0  0  0  0  0  0  0  0  0  0  0  0
   12.3782    5.4231   20.7777 C   0  0  0  0  0  0  0  0  0  0  0  0
    7.7365    4.6508   21.6987 C   0  0  0  0  0  0  0  0  0  0  0  0
   13.0186   11.0102   18.0020 C   0  0  0  0  0  0  0  0  0  0  0  0
    8.6628    5.7088   21.8871 N   0  0  0  0  0  0  0  0  0  0  0  0
    5.6516    3.5258   21.9140 C   0  0  0  0  0  0  0  0  0  0  0  0
   11.5863    9.6815   19.4539 C   0  0  0  0  0  0  0  0  0  0  0  0
   12.9648    4.1543   20.9205 C   0  0  0  0  0  0  0  0  0  0  0  0
    8.2089    3.6265   20.8929 C   0  0  0  0  0  0  0  0  0  0  0  0
    7.3827    2.5724   20.5432 C   0  0  0  0  0  0  0  0  0  0  0  0
   11.1529    7.2750   20.8025 C   0  0  0  0  0  0  0  0  0  0  0  0
   10.2573    8.3215   20.9827 C   0  0  0  0  0  0  0  0  0  0  0  0
   11.1606    5.9378   21.2366 N   0  0  0  0  0  0  0  0  0  0  0  0
    9.8932   11.6736   19.0677 O   0  0  0  0  0  0  0  0  0  0  0  0
    6.4470    4.5850   22.2321 C   0  0  0  0  0  0  0  0  0  0  0  0
    8.4619    6.9895   22.2968 C   0  0  0  0  0  0  0  0  0  0  0  0
   12.2747    7.5102   20.0420 C   0  0  0  0  0  0  0  0  0  0  0  0
   14.2544    6.2142   19.4191 C   0  0  0  0  0  0  0  0  0  0  0  0
   13.0695    6.3705   20.0375 N   0  0  0  0  0  0  0  0  0  0  0  0
    9.1913    8.0876   21.8361 N   0  0  0  0  0  0  0  0  0  0  0  0
   10.4739    9.4813   20.2889 C   0  0  0  0  0  0  0  0  0  0  0  0
    7.5551    7.1270   23.1200 O   0  0  0  0  0  0  0  0  0  0  0  0
  1 11  4  0
  1 21  4  0
  2  4  1  0
  2  8  1  0
  2 11  1  0
  3 10  4  0
  3 14  4  0
  4  5  1  0
  4 18  2  0
  6 12  1  0
  6 17  4  0
  6 23  4  0
  7  9  1  0
  7 13  4  0
  7 19  4  0
  9 20  1  0
 10 19  4  0
 11 25  4  0
 13 14  4  0
 15 16  4  0
 15 17  4  0
 15 21  4  0
 16 24  1  0
 16 25  4  0
 20 24  1  0
 20 26  2  0
 21 23  4  0
 22 23  1  0
M  END
$$$$

 Created by Python create_sdf_string function

 26 28  0  0  0  0  0  0  0  0999 V2000
   12.4616    8.6700   19.4180 N   0  0  0  0  0  0  0  0  0  0  0  0
   11.8329   10.8148   18.6769 N   0  0  0  0  0  0  0  0  0  0  0  0
    6.1021    2.5564   21.0678 C   0  0  0  0  0  0  0  0  0  0  0  0
   10.9097   11.8051   18.4804 C   0  0  0  0  0  0  0  0  0  0  0  0
   11.2280   12.9135   17.5669 C   0  0  0  0  0  0  0  0  0  0  0  0
   12.3782    5.4231   20.7777 C   0  0  0  0  0  0  0  0  0  0  0  0
    7.7365    4.6508   21.6987 C   0  0  0  0  0  0  0  0  0  0  0  0
   13.0186   11.0102   18.0020 C   0  0  0  0  0  0  0  0  0  0  0  0
    8.6628    5.7088   21.8871 N   0  0  0  0  0  0  0  0  0  0  0  0
    5.6516    3.5258   21.9140 C   0  0  0  0  0  0  0  0  0  0  0  0
   11.5863    9.6815   19.4539 C   0  0  0  0  0  0  0  0  0  0  0  0
   12.9648    4.1543   20.9205 C   0  0  0  0  0  0  0  0  0  0  0  0
    8.2089    3.6265   20.8929 C   0  0  0  0  0  0  0  0  0  0  0  0
    7.3827    2.5724   20.5432 C   0  0  0  0  0  0  0  0  0  0  0  0
   11.1529    7.2750   20.8025 C   0  0  0  0  0  0  0  0  0  0  0  0
   10.2573    8.3215   20.9827 C   0  0  0  0  0  0  0  0  0  0  0  0
   11.1606    5.9378   21.2366 N   0  0  0  0  0  0  0  0  0  0  0  0
    9.8932   11.6736   19.0677 O   0  0  0  0  0  0  0  0  0  0  0  0
    6.4470    4.5850   22.2321 C   0  0  0  0  0  0  0  0  0  0  0  0
    8.4619    6.9895   22.2968 C   0  0  0  0  0  0  0  0  0  0  0  0
   12.2747    7.5102   20.0420 C   0  0  0  0  0  0  0  0  0  0  0  0
   14.2544    6.2142   19.4191 C   0  0  0  0  0  0  0  0  0  0  0  0
   13.0695    6.3705   20.0375 N   0  0  0  0  0  0  0  0  0  0  0  0
    9.1913    8.0876   21.8361 N   0  0  0  0  0  0  0  0  0  0  0  0
   10.4739    9.4813   20.2889 C   0  0  0  0  0  0  0  0  0  0  0  0
    7.5551    7.1270   23.1200 O   0  0  0  0  0  0  0  0  0  0  0  0
  1 11  4  0
  1 21  4  0
  2  4  1  0
  2  8  1  0
  2 11  1  0
  3 10  4  0
  3 14  4  0
  4  5  1  0
  4 18  2  0
  6 12  1  0
  6 17  4  0
  6 23  4  0
  7  9  1  0
  7 13  4  0
  7 19  4  0
  9 20  1  0
 10 19  4  0
 11 25  4  0
 13 14  4  0
 15 16  4  0
 15 17  4  0
 15 21  4  0
 16 24  1  0
 16 25  4  0
 20 24  1  0
 20 26  2  0
 21 23  4  0
 22 23  1  0
M  END
$$$$

 Created by Python create_sdf_string function

 26 28  0  0  0  0  0  0  0  0999 V2000
   12.4616    8.6700   19.4180 N   0  0  0  0  0  0  0  0  0  0  0  0
   11.8329   10.8148   18.6769 N   0  0  0  0  0  0  0  0  0  0  0  0
    6.1021    2.5564   21.0678 C   0  0  0  0  0  0  0  0  0  0  0  0
   10.9097   11.8051   18.4804 C   0  0  0  0  0  0  0  0  0  0  0  0
   11.2280   12.9135   17.5669 C   0  0  0  0  0  0  0  0  0  0  0  0
   12.3782    5.4231   20.7777 C   0  0  0  0  0  0  0  0  0  0  0  0
    7.7365    4.6508   21.6987 C   0  0  0  0  0  0  0  0  0  0  0  0
   13.0186   11.0102   18.0020 C   0  0  0  0  0  0  0  0  0  0  0  0
    8.6628    5.7088   21.8871 N   0  0  0  0  0  0  0  0  0  0  0  0
    5.6516    3.5258   21.9140 C   0  0  0  0  0  0  0  0  0  0  0  0
   11.5863    9.6815   19.4539 C   0  0  0  0  0  0  0  0  0  0  0  0
   12.9648    4.1543   20.9205 C   0  0  0  0  0  0  0  0  0  0  0  0
    8.2089    3.6265   20.8929 C   0  0  0  0  0  0  0  0  0  0  0  0
    7.3827    2.5724   20.5432 C   0  0  0  0  0  0  0  0  0  0  0  0
   11.1529    7.2750   20.8025 C   0  0  0  0  0  0  0  0  0  0  0  0
   10.2573    8.3215   20.9827 C   0  0  0  0  0  0  0  0  0  0  0  0
   11.1606    5.9378   21.2366 N   0  0  0  0  0  0  0  0  0  0  0  0
    9.8932   11.6736   19.0677 O   0  0  0  0  0  0  0  0  0  0  0  0
    6.4470    4.5850   22.2321 C   0  0  0  0  0  0  0  0  0  0  0  0
    8.4619    6.9895   22.2968 C   0  0  0  0  0  0  0  0  0  0  0  0
   12.2747    7.5102   20.0420 C   0  0  0  0  0  0  0  0  0  0  0  0
   14.2544    6.2142   19.4191 C   0  0  0  0  0  0  0  0  0  0  0  0
   13.0695    6.3705   20.0375 N   0  0  0  0  0  0  0  0  0  0  0  0
    9.1913    8.0876   21.8361 N   0  0  0  0  0  0  0  0  0  0  0  0
   10.4739    9.4813   20.2889 C   0  0  0  0  0  0  0  0  0  0  0  0
    7.5551    7.1270   23.1200 O   0  0  0  0  0  0  0  0  0  0  0  0
  1 11  4  0
  1 21  4  0
  2  4  1  0
  2  8  1  0
  2 11  1  0
  3 10  4  0
  3 14  4  0
  4  5  1  0
  4 18  2  0
  6 12  1  0
  6 17  4  0
  6 23  4  0
  7  9  1  0
  7 13  4  0
  7 19  4  0
  9 20  1  0
 10 19  4  0
 11 25  4  0
 13 14  4  0
 15 16  4  0
 15 17  4  0
 15 21  4  0
 16 24  1  0
 16 25  4  0
 20 24  1  0
 20 26  2  0
 21 23  4  0
 22 23  1  0
M  END
$$$$

 Created by Python create_sdf_string function

 26 28  0  0  0  0  0  0  0  0999 V2000
   12.4616    8.6700   19.4180 N   0  0  0  0  0  0  0  0  0  0  0  0
   11.8329   10.8148   18.6769 N   0  0  0  0  0  0  0  0  0  0  0  0
    6.1021    2.5564   21.0678 C   0  0  0  0  0  0  0  0  0  0  0  0
   10.9097   11.8051   18.4804 C   0  0  0  0  0  0  0  0  0  0  0  0
   11.2280   12.9135   17.5669 C   0  0  0  0  0  0  0  0  0  0  0  0
   12.3782    5.4231   20.7777 C   0  0  0  0  0  0  0  0  0  0  0  0
    7.7365    4.6508   21.6987 C   0  0  0  0  0  0  0  0  0  0  0  0
   13.0186   11.0102   18.0020 C   0  0  0  0  0  0  0  0  0  0  0  0
    8.6628    5.7088   21.8871 N   0  0  0  0  0  0  0  0  0  0  0  0
    5.6516    3.5258   21.9140 C   0  0  0  0  0  0  0  0  0  0  0  0
   11.5863    9.6815   19.4539 C   0  0  0  0  0  0  0  0  0  0  0  0
   12.9648    4.1543   20.9205 C   0  0  0  0  0  0  0  0  0  0  0  0
    8.2089    3.6265   20.8929 C   0  0  0  0  0  0  0  0  0  0  0  0
    7.3827    2.5724   20.5432 C   0  0  0  0  0  0  0  0  0  0  0  0
   11.1529    7.2750   20.8025 C   0  0  0  0  0  0  0  0  0  0  0  0
   10.2573    8.3215   20.9827 C   0  0  0  0  0  0  0  0  0  0  0  0
   11.1606    5.9378   21.2366 N   0  0  0  0  0  0  0  0  0  0  0  0
    9.8932   11.6736   19.0677 O   0  0  0  0  0  0  0  0  0  0  0  0
    6.4470    4.5850   22.2321 C   0  0  0  0  0  0  0  0  0  0  0  0
    8.4619    6.9895   22.2968 C   0  0  0  0  0  0  0  0  0  0  0  0
   12.2747    7.5102   20.0420 C   0  0  0  0  0  0  0  0  0  0  0  0
   14.2544    6.2142   19.4191 C   0  0  0  0  0  0  0  0  0  0  0  0
   13.0695    6.3705   20.0375 N   0  0  0  0  0  0  0  0  0  0  0  0
    9.1913    8.0876   21.8361 N   0  0  0  0  0  0  0  0  0  0  0  0
   10.4739    9.4813   20.2889 C   0  0  0  0  0  0  0  0  0  0  0  0
    7.5551    7.1270   23.1200 O   0  0  0  0  0  0  0  0  0  0  0  0
  1 11  4  0
  1 21  4  0
  2  4  1  0
  2  8  1  0
  2 11  1  0
  3 10  4  0
  3 14  4  0
  4  5  1  0
  4 18  2  0
  6 12  1  0
  6 17  4  0
  6 23  4  0
  7  9  1  0
  7 13  4  0
  7 19  4  0
  9 20  1  0
 10 19  4  0
 11 25  4  0
 13 14  4  0
 15 16  4  0
 15 17  4  0
 15 21  4  0
 16 24  1  0
 16 25  4  0
 20 24  1  0
 20 26  2  0
 21 23  4  0
 22 23  1  0
M  END
$$$$

 Created by Python create_sdf_string function

 26 28  0  0  0  0  0  0  0  0999 V2000
   12.4616    8.6700   19.4180 N   0  0  0  0  0  0  0  0  0  0  0  0
   11.8329   10.8148   18.6769 N   0  0  0  0  0  0  0  0  0  0  0  0
    6.1021    2.5564   21.0678 C   0  0  0  0  0  0  0  0  0  0  0  0
   10.9097   11.8051   18.4804 C   0  0  0  0  0  0  0  0  0  0  0  0
   11.2280   12.9135   17.5669 C   0  0  0  0  0  0  0  0  0  0  0  0
   12.3782    5.4231   20.7777 C   0  0  0  0  0  0  0  0  0  0  0  0
    7.7365    4.6508   21.6987 C   0  0  0  0  0  0  0  0  0  0  0  0
   13.0186   11.0102   18.0020 C   0  0  0  0  0  0  0  0  0  0  0  0
    8.6628    5.7088   21.8871 N   0  0  0  0  0  0  0  0  0  0  0  0
    5.6516    3.5258   21.9140 C   0  0  0  0  0  0  0  0  0  0  0  0
   11.5863    9.6815   19.4539 C   0  0  0  0  0  0  0  0  0  0  0  0
   12.9648    4.1543   20.9205 C   0  0  0  0  0  0  0  0  0  0  0  0
    8.2089    3.6265   20.8929 C   0  0  0  0  0  0  0  0  0  0  0  0
    7.3827    2.5724   20.5432 C   0  0  0  0  0  0  0  0  0  0  0  0
   11.1529    7.2750   20.8025 C   0  0  0  0  0  0  0  0  0  0  0  0
   10.2573    8.3215   20.9827 C   0  0  0  0  0  0  0  0  0  0  0  0
   11.1606    5.9378   21.2366 N   0  0  0  0  0  0  0  0  0  0  0  0
    9.8932   11.6736   19.0677 O   0  0  0  0  0  0  0  0  0  0  0  0
    6.4470    4.5850   22.2321 C   0  0  0  0  0  0  0  0  0  0  0  0
    8.4619    6.9895   22.2968 C   0  0  0  0  0  0  0  0  0  0  0  0
   12.2747    7.5102   20.0420 C   0  0  0  0  0  0  0  0  0  0  0  0
   14.2544    6.2142   19.4191 C   0  0  0  0  0  0  0  0  0  0  0  0
   13.0695    6.3705   20.0375 N   0  0  0  0  0  0  0  0  0  0  0  0
    9.1913    8.0876   21.8361 N   0  0  0  0  0  0  0  0  0  0  0  0
   10.4739    9.4813   20.2889 C   0  0  0  0  0  0  0  0  0  0  0  0
    7.5551    7.1270   23.1200 O   0  0  0  0  0  0  0  0  0  0  0  0
  1 11  4  0
  1 21  4  0
  2  4  1  0
  2  8  1  0
  2 11  1  0
  3 10  4  0
  3 14  4  0
  4  5  1  0
  4 18  2  0
  6 12  1  0
  6 17  4  0
  6 23  4  0
  7  9  1  0
  7 13  4  0
  7 19  4  0
  9 20  1  0
 10 19  4  0
 11 25  4  0
 13 14  4  0
 15 16  4  0
 15 17  4  0
 15 21  4  0
 16 24  1  0
 16 25  4  0
 20 24  1  0
 20 26  2  0
 21 23  4  0
 22 23  1  0
M  END
$$$$

 Created by Python create_sdf_string function

 26 28  0  0  0  0  0  0  0  0999 V2000
   12.4616    8.6700   19.4180 N   0  0  0  0  0  0  0  0  0  0  0  0
   11.8329   10.8148   18.6769 N   0  0  0  0  0  0  0  0  0  0  0  0
    6.1021    2.5564   21.0678 C   0  0  0  0  0  0  0  0  0  0  0  0
   10.9097   11.8051   18.4804 C   0  0  0  0  0  0  0  0  0  0  0  0
   11.2280   12.9135   17.5669 C   0  0  0  0  0  0  0  0  0  0  0  0
   12.3782    5.4231   20.7777 C   0  0  0  0  0  0  0  0  0  0  0  0
    7.7365    4.6508   21.6987 C   0  0  0  0  0  0  0  0  0  0  0  0
   13.0186   11.0102   18.0020 C   0  0  0  0  0  0  0  0  0  0  0  0
    8.6628    5.7088   21.8871 N   0  0  0  0  0  0  0  0  0  0  0  0
    5.6516    3.5258   21.9140 C   0  0  0  0  0  0  0  0  0  0  0  0
   11.5863    9.6815   19.4539 C   0  0  0  0  0  0  0  0  0  0  0  0
   12.9648    4.1543   20.9205 C   0  0  0  0  0  0  0  0  0  0  0  0
    8.2089    3.6265   20.8929 C   0  0  0  0  0  0  0  0  0  0  0  0
    7.3827    2.5724   20.5432 C   0  0  0  0  0  0  0  0  0  0  0  0
   11.1529    7.2750   20.8025 C   0  0  0  0  0  0  0  0  0  0  0  0
   10.2573    8.3215   20.9827 C   0  0  0  0  0  0  0  0  0  0  0  0
   11.1606    5.9378   21.2366 N   0  0  0  0  0  0  0  0  0  0  0  0
    9.8932   11.6736   19.0677 O   0  0  0  0  0  0  0  0  0  0  0  0
    6.4470    4.5850   22.2321 C   0  0  0  0  0  0  0  0  0  0  0  0
    8.4619    6.9895   22.2968 C   0  0  0  0  0  0  0  0  0  0  0  0
   12.2747    7.5102   20.0420 C   0  0  0  0  0  0  0  0  0  0  0  0
   14.2544    6.2142   19.4191 C   0  0  0  0  0  0  0  0  0  0  0  0
   13.0695    6.3705   20.0375 N   0  0  0  0  0  0  0  0  0  0  0  0
    9.1913    8.0876   21.8361 N   0  0  0  0  0  0  0  0  0  0  0  0
   10.4739    9.4813   20.2889 C   0  0  0  0  0  0  0  0  0  0  0  0
    7.5551    7.1270   23.1200 O   0  0  0  0  0  0  0  0  0  0  0  0
  1 11  4  0
  1 21  4  0
  2  4  1  0
  2  8  1  0
  2 11  1  0
  3 10  4  0
  3 14  4  0
  4  5  1  0
  4 18  2  0
  6 12  1  0
  6 17  4  0
  6 23  4  0
  7  9  1  0
  7 13  4  0
  7 19  4  0
  9 20  1  0
 10 19  4  0
 11 25  4  0
 13 14  4  0
 15 16  4  0
 15 17  4  0
 15 21  4  0
 16 24  1  0
 16 25  4  0
 20 24  1  0
 20 26  2  0
 21 23  4  0
 22 23  1  0
M  END
$$$$

 Created by Python create_sdf_string function

 26 28  0  0  0  0  0  0  0  0999 V2000
   12.4616    8.6700   19.4180 N   0  0  0  0  0  0  0  0  0  0  0  0
   11.8329   10.8148   18.6769 N   0  0  0  0  0  0  0  0  0  0  0  0
    6.1021    2.5564   21.0678 C   0  0  0  0  0  0  0  0  0  0  0  0
   10.9097   11.8051   18.4804 C   0  0  0  0  0  0  0  0  0  0  0  0
   11.2280   12.9135   17.5669 C   0  0  0  0  0  0  0  0  0  0  0  0
   12.3782    5.4231   20.7777 C   0  0  0  0  0  0  0  0  0  0  0  0
    7.7365    4.6508   21.6987 C   0  0  0  0  0  0  0  0  0  0  0  0
   13.0186   11.0102   18.0020 C   0  0  0  0  0  0  0  0  0  0  0  0
    8.6628    5.7088   21.8871 N   0  0  0  0  0  0  0  0  0  0  0  0
    5.6516    3.5258   21.9140 C   0  0  0  0  0  0  0  0  0  0  0  0
   11.5863    9.6815   19.4539 C   0  0  0  0  0  0  0  0  0  0  0  0
   12.9648    4.1543   20.9205 C   0  0  0  0  0  0  0  0  0  0  0  0
    8.2089    3.6265   20.8929 C   0  0  0  0  0  0  0  0  0  0  0  0
    7.3827    2.5724   20.5432 C   0  0  0  0  0  0  0  0  0  0  0  0
   11.1529    7.2750   20.8025 C   0  0  0  0  0  0  0  0  0  0  0  0
   10.2573    8.3215   20.9827 C   0  0  0  0  0  0  0  0  0  0  0  0
   11.1606    5.9378   21.2366 N   0  0  0  0  0  0  0  0  0  0  0  0
    9.8932   11.6736   19.0677 O   0  0  0  0  0  0  0  0  0  0  0  0
    6.4470    4.5850   22.2321 C   0  0  0  0  0  0  0  0  0  0  0  0
    8.4619    6.9895   22.2968 C   0  0  0  0  0  0  0  0  0  0  0  0
   12.2747    7.5102   20.0420 C   0  0  0  0  0  0  0  0  0  0  0  0
   14.2544    6.2142   19.4191 C   0  0  0  0  0  0  0  0  0  0  0  0
   13.0695    6.3705   20.0375 N   0  0  0  0  0  0  0  0  0  0  0  0
    9.1913    8.0876   21.8361 N   0  0  0  0  0  0  0  0  0  0  0  0
   10.4739    9.4813   20.2889 C   0  0  0  0  0  0  0  0  0  0  0  0
    7.5551    7.1270   23.1200 O   0  0  0  0  0  0  0  0  0  0  0  0
  1 11  4  0
  1 21  4  0
  2  4  1  0
  2  8  1  0
  2 11  1  0
  3 10  4  0
  3 14  4  0
  4  5  1  0
  4 18  2  0
  6 12  1  0
  6 17  4  0
  6 23  4  0
  7  9  1  0
  7 13  4  0
  7 19  4  0
  9 20  1  0
 10 19  4  0
 11 25  4  0
 13 14  4  0
 15 16  4  0
 15 17  4  0
 15 21  4  0
 16 24  1  0
 16 25  4  0
 20 24  1  0
 20 26  2  0
 21 23  4  0
 22 23  1  0
M  END
$$$$

 Created by Python create_sdf_string function

 26 28  0  0  0  0  0  0  0  0999 V2000
   12.4616    8.6700   19.4180 N   0  0  0  0  0  0  0  0  0  0  0  0
   11.8329   10.8148   18.6769 N   0  0  0  0  0  0  0  0  0  0  0  0
    6.1021    2.5564   21.0678 C   0  0  0  0  0  0  0  0  0  0  0  0
   10.9097   11.8051   18.4804 C   0  0  0  0  0  0  0  0  0  0  0  0
   11.2280   12.9135   17.5669 C   0  0  0  0  0  0  0  0  0  0  0  0
   12.3782    5.4231   20.7777 C   0  0  0  0  0  0  0  0  0  0  0  0
    7.7365    4.6508   21.6987 C   0  0  0  0  0  0  0  0  0  0  0  0
   13.0186   11.0102   18.0020 C   0  0  0  0  0  0  0  0  0  0  0  0
    8.6628    5.7088   21.8871 N   0  0  0  0  0  0  0  0  0  0  0  0
    5.6516    3.5258   21.9140 C   0  0  0  0  0  0  0  0  0  0  0  0
   11.5863    9.6815   19.4539 C   0  0  0  0  0  0  0  0  0  0  0  0
   12.9648    4.1543   20.9205 C   0  0  0  0  0  0  0  0  0  0  0  0
    8.2089    3.6265   20.8929 C   0  0  0  0  0  0  0  0  0  0  0  0
    7.3827    2.5724   20.5432 C   0  0  0  0  0  0  0  0  0  0  0  0
   11.1529    7.2750   20.8025 C   0  0  0  0  0  0  0  0  0  0  0  0
   10.2573    8.3215   20.9827 C   0  0  0  0  0  0  0  0  0  0  0  0
   11.1606    5.9378   21.2366 N   0  0  0  0  0  0  0  0  0  0  0  0
    9.8932   11.6736   19.0677 O   0  0  0  0  0  0  0  0  0  0  0  0
    6.4470    4.5850   22.2321 C   0  0  0  0  0  0  0  0  0  0  0  0
    8.4619    6.9895   22.2968 C   0  0  0  0  0  0  0  0  0  0  0  0
   12.2747    7.5102   20.0420 C   0  0  0  0  0  0  0  0  0  0  0  0
   14.2544    6.2142   19.4191 C   0  0  0  0  0  0  0  0  0  0  0  0
   13.0695    6.3705   20.0375 N   0  0  0  0  0  0  0  0  0  0  0  0
    9.1913    8.0876   21.8361 N   0  0  0  0  0  0  0  0  0  0  0  0
   10.4739    9.4813   20.2889 C   0  0  0  0  0  0  0  0  0  0  0  0
    7.5551    7.1270   23.1200 O   0  0  0  0  0  0  0  0  0  0  0  0
  1 11  4  0
  1 21  4  0
  2  4  1  0
  2  8  1  0
  2 11  1  0
  3 10  4  0
  3 14  4  0
  4  5  1  0
  4 18  2  0
  6 12  1  0
  6 17  4  0
  6 23  4  0
  7  9  1  0
  7 13  4  0
  7 19  4  0
  9 20  1  0
 10 19  4  0
 11 25  4  0
 13 14  4  0
 15 16  4  0
 15 17  4  0
 15 21  4  0
 16 24  1  0
 16 25  4  0
 20 24  1  0
 20 26  2  0
 21 23  4  0
 22 23  1  0
M  END
$$$$

 Created by Python create_sdf_string function

 26 28  0  0  0  0  0  0  0  0999 V2000
   12.4616    8.6700   19.4180 N   0  0  0  0  0  0  0  0  0  0  0  0
   11.8329   10.8148   18.6769 N   0  0  0  0  0  0  0  0  0  0  0  0
    6.1021    2.5564   21.0678 C   0  0  0  0  0  0  0  0  0  0  0  0
   10.9097   11.8051   18.4804 C   0  0  0  0  0  0  0  0  0  0  0  0
   11.2280   12.9135   17.5669 C   0  0  0  0  0  0  0  0  0  0  0  0
   12.3782    5.4231   20.7777 C   0  0  0  0  0  0  0  0  0  0  0  0
    7.7365    4.6508   21.6987 C   0  0  0  0  0  0  0  0  0  0  0  0
   13.0186   11.0102   18.0020 C   0  0  0  0  0  0  0  0  0  0  0  0
    8.6628    5.7088   21.8871 N   0  0  0  0  0  0  0  0  0  0  0  0
    5.6516    3.5258   21.9140 C   0  0  0  0  0  0  0  0  0  0  0  0
   11.5863    9.6815   19.4539 C   0  0  0  0  0  0  0  0  0  0  0  0
   12.9648    4.1543   20.9205 C   0  0  0  0  0  0  0  0  0  0  0  0
    8.2089    3.6265   20.8929 C   0  0  0  0  0  0  0  0  0  0  0  0
    7.3827    2.5724   20.5432 C   0  0  0  0  0  0  0  0  0  0  0  0
   11.1529    7.2750   20.8025 C   0  0  0  0  0  0  0  0  0  0  0  0
   10.2573    8.3215   20.9827 C   0  0  0  0  0  0  0  0  0  0  0  0
   11.1606    5.9378   21.2366 N   0  0  0  0  0  0  0  0  0  0  0  0
    9.8932   11.6736   19.0677 O   0  0  0  0  0  0  0  0  0  0  0  0
    6.4470    4.5850   22.2321 C   0  0  0  0  0  0  0  0  0  0  0  0
    8.4619    6.9895   22.2968 C   0  0  0  0  0  0  0  0  0  0  0  0
   12.2747    7.5102   20.0420 C   0  0  0  0  0  0  0  0  0  0  0  0
   14.2544    6.2142   19.4191 C   0  0  0  0  0  0  0  0  0  0  0  0
   13.0695    6.3705   20.0375 N   0  0  0  0  0  0  0  0  0  0  0  0
    9.1913    8.0876   21.8361 N   0  0  0  0  0  0  0  0  0  0  0  0
   10.4739    9.4813   20.2889 C   0  0  0  0  0  0  0  0  0  0  0  0
    7.5551    7.1270   23.1200 O   0  0  0  0  0  0  0  0  0  0  0  0
  1 11  4  0
  1 21  4  0
  2  4  1  0
  2  8  1  0
  2 11  1  0
  3 10  4  0
  3 14  4  0
  4  5  1  0
  4 18  2  0
  6 12  1  0
  6 17  4  0
  6 23  4  0
  7  9  1  0
  7 13  4  0
  7 19  4  0
  9 20  1  0
 10 19  4  0
 11 25  4  0
 13 14  4  0
 15 16  4  0
 15 17  4  0
 15 21  4  0
 16 24  1  0
 16 25  4  0
 20 24  1  0
 20 26  2  0
 21 23  4  0
 22 23  1  0
M  END
$$$$

 Created by Python create_sdf_string function

 26 28  0  0  0  0  0  0  0  0999 V2000
   12.4616    8.6700   19.4180 N   0  0  0  0  0  0  0  0  0  0  0  0
   11.8329   10.8148   18.6769 N   0  0  0  0  0  0  0  0  0  0  0  0
    6.1021    2.5564   21.0678 C   0  0  0  0  0  0  0  0  0  0  0  0
   10.9097   11.8051   18.4804 C   0  0  0  0  0  0  0  0  0  0  0  0
   11.2280   12.9135   17.5669 C   0  0  0  0  0  0  0  0  0  0  0  0
   12.3782    5.4231   20.7777 C   0  0  0  0  0  0  0  0  0  0  0  0
    7.7365    4.6508   21.6987 C   0  0  0  0  0  0  0  0  0  0  0  0
   13.0186   11.0102   18.0020 C   0  0  0  0  0  0  0  0  0  0  0  0
    8.6628    5.7088   21.8871 N   0  0  0  0  0  0  0  0  0  0  0  0
    5.6516    3.5258   21.9140 C   0  0  0  0  0  0  0  0  0  0  0  0
   11.5863    9.6815   19.4539 C   0  0  0  0  0  0  0  0  0  0  0  0
   12.9648    4.1543   20.9205 C   0  0  0  0  0  0  0  0  0  0  0  0
    8.2089    3.6265   20.8929 C   0  0  0  0  0  0  0  0  0  0  0  0
    7.3827    2.5724   20.5432 C   0  0  0  0  0  0  0  0  0  0  0  0
   11.1529    7.2750   20.8025 C   0  0  0  0  0  0  0  0  0  0  0  0
   10.2573    8.3215   20.9827 C   0  0  0  0  0  0  0  0  0  0  0  0
   11.1606    5.9378   21.2366 N   0  0  0  0  0  0  0  0  0  0  0  0
    9.8932   11.6736   19.0677 O   0  0  0  0  0  0  0  0  0  0  0  0
    6.4470    4.5850   22.2321 C   0  0  0  0  0  0  0  0  0  0  0  0
    8.4619    6.9895   22.2968 C   0  0  0  0  0  0  0  0  0  0  0  0
   12.2747    7.5102   20.0420 C   0  0  0  0  0  0  0  0  0  0  0  0
   14.2544    6.2142   19.4191 C   0  0  0  0  0  0  0  0  0  0  0  0
   13.0695    6.3705   20.0375 N   0  0  0  0  0  0  0  0  0  0  0  0
    9.1913    8.0876   21.8361 N   0  0  0  0  0  0  0  0  0  0  0  0
   10.4739    9.4813   20.2889 C   0  0  0  0  0  0  0  0  0  0  0  0
    7.5551    7.1270   23.1200 O   0  0  0  0  0  0  0  0  0  0  0  0
  1 11  4  0
  1 21  4  0
  2  4  1  0
  2  8  1  0
  2 11  1  0
  3 10  4  0
  3 14  4  0
  4  5  1  0
  4 18  2  0
  6 12  1  0
  6 17  4  0
  6 23  4  0
  7  9  1  0
  7 13  4  0
  7 19  4  0
  9 20  1  0
 10 19  4  0
 11 25  4  0
 13 14  4  0
 15 16  4  0
 15 17  4  0
 15 21  4  0
 16 24  1  0
 16 25  4  0
 20 24  1  0
 20 26  2  0
 21 23  4  0
 22 23  1  0
M  END
$$$$

 Created by Python create_sdf_string function

 26 28  0  0  0  0  0  0  0  0999 V2000
   12.4616    8.6700   19.4180 N   0  0  0  0  0  0  0  0  0  0  0  0
   11.8329   10.8148   18.6769 N   0  0  0  0  0  0  0  0  0  0  0  0
    6.1021    2.5564   21.0678 C   0  0  0  0  0  0  0  0  0  0  0  0
   10.9097   11.8051   18.4804 C   0  0  0  0  0  0  0  0  0  0  0  0
   11.2280   12.9135   17.5669 C   0  0  0  0  0  0  0  0  0  0  0  0
   12.3782    5.4231   20.7777 C   0  0  0  0  0  0  0  0  0  0  0  0
    7.7365    4.6508   21.6987 C   0  0  0  0  0  0  0  0  0  0  0  0
   13.0186   11.0102   18.0020 C   0  0  0  0  0  0  0  0  0  0  0  0
    8.6628    5.7088   21.8871 N   0  0  0  0  0  0  0  0  0  0  0  0
    5.6516    3.5258   21.9140 C   0  0  0  0  0  0  0  0  0  0  0  0
   11.5863    9.6815   19.4539 C   0  0  0  0  0  0  0  0  0  0  0  0
   12.9648    4.1543   20.9205 C   0  0  0  0  0  0  0  0  0  0  0  0
    8.2089    3.6265   20.8929 C   0  0  0  0  0  0  0  0  0  0  0  0
    7.3827    2.5724   20.5432 C   0  0  0  0  0  0  0  0  0  0  0  0
   11.1529    7.2750   20.8025 C   0  0  0  0  0  0  0  0  0  0  0  0
   10.2573    8.3215   20.9827 C   0  0  0  0  0  0  0  0  0  0  0  0
   11.1606    5.9378   21.2366 N   0  0  0  0  0  0  0  0  0  0  0  0
    9.8932   11.6736   19.0677 O   0  0  0  0  0  0  0  0  0  0  0  0
    6.4470    4.5850   22.2321 C   0  0  0  0  0  0  0  0  0  0  0  0
    8.4619    6.9895   22.2968 C   0  0  0  0  0  0  0  0  0  0  0  0
   12.2747    7.5102   20.0420 C   0  0  0  0  0  0  0  0  0  0  0  0
   14.2544    6.2142   19.4191 C   0  0  0  0  0  0  0  0  0  0  0  0
   13.0695    6.3705   20.0375 N   0  0  0  0  0  0  0  0  0  0  0  0
    9.1913    8.0876   21.8361 N   0  0  0  0  0  0  0  0  0  0  0  0
   10.4739    9.4813   20.2889 C   0  0  0  0  0  0  0  0  0  0  0  0
    7.5551    7.1270   23.1200 O   0  0  0  0  0  0  0  0  0  0  0  0
  1 11  4  0
  1 21  4  0
  2  4  1  0
  2  8  1  0
  2 11  1  0
  3 10  4  0
  3 14  4  0
  4  5  1  0
  4 18  2  0
  6 12  1  0
  6 17  4  0
  6 23  4  0
  7  9  1  0
  7 13  4  0
  7 19  4  0
  9 20  1  0
 10 19  4  0
 11 25  4  0
 13 14  4  0
 15 16  4  0
 15 17  4  0
 15 21  4  0
 16 24  1  0
 16 25  4  0
 20 24  1  0
 20 26  2  0
 21 23  4  0
 22 23  1  0
M  END
$$$$

 Created by Python create_sdf_string function

 26 28  0  0  0  0  0  0  0  0999 V2000
   12.4616    8.6700   19.4180 N   0  0  0  0  0  0  0  0  0  0  0  0
   11.8329   10.8148   18.6769 N   0  0  0  0  0  0  0  0  0  0  0  0
    6.1021    2.5564   21.0678 C   0  0  0  0  0  0  0  0  0  0  0  0
   10.9097   11.8051   18.4804 C   0  0  0  0  0  0  0  0  0  0  0  0
   11.2280   12.9135   17.5669 C   0  0  0  0  0  0  0  0  0  0  0  0
   12.3782    5.4231   20.7777 C   0  0  0  0  0  0  0  0  0  0  0  0
    7.7365    4.6508   21.6987 C   0  0  0  0  0  0  0  0  0  0  0  0
   13.0186   11.0102   18.0020 C   0  0  0  0  0  0  0  0  0  0  0  0
    8.6628    5.7088   21.8871 N   0  0  0  0  0  0  0  0  0  0  0  0
    5.6516    3.5258   21.9140 C   0  0  0  0  0  0  0  0  0  0  0  0
   11.5863    9.6815   19.4539 C   0  0  0  0  0  0  0  0  0  0  0  0
   12.9648    4.1543   20.9205 C   0  0  0  0  0  0  0  0  0  0  0  0
    8.2089    3.6265   20.8929 C   0  0  0  0  0  0  0  0  0  0  0  0
    7.3827    2.5724   20.5432 C   0  0  0  0  0  0  0  0  0  0  0  0
   11.1529    7.2750   20.8025 C   0  0  0  0  0  0  0  0  0  0  0  0
   10.2573    8.3215   20.9827 C   0  0  0  0  0  0  0  0  0  0  0  0
   11.1606    5.9378   21.2366 N   0  0  0  0  0  0  0  0  0  0  0  0
    9.8932   11.6736   19.0677 O   0  0  0  0  0  0  0  0  0  0  0  0
    6.4470    4.5850   22.2321 C   0  0  0  0  0  0  0  0  0  0  0  0
    8.4619    6.9895   22.2968 C   0  0  0  0  0  0  0  0  0  0  0  0
   12.2747    7.5102   20.0420 C   0  0  0  0  0  0  0  0  0  0  0  0
   14.2544    6.2142   19.4191 C   0  0  0  0  0  0  0  0  0  0  0  0
   13.0695    6.3705   20.0375 N   0  0  0  0  0  0  0  0  0  0  0  0
    9.1913    8.0876   21.8361 N   0  0  0  0  0  0  0  0  0  0  0  0
   10.4739    9.4813   20.2889 C   0  0  0  0  0  0  0  0  0  0  0  0
    7.5551    7.1270   23.1200 O   0  0  0  0  0  0  0  0  0  0  0  0
  1 11  4  0
  1 21  4  0
  2  4  1  0
  2  8  1  0
  2 11  1  0
  3 10  4  0
  3 14  4  0
  4  5  1  0
  4 18  2  0
  6 12  1  0
  6 17  4  0
  6 23  4  0
  7  9  1  0
  7 13  4  0
  7 19  4  0
  9 20  1  0
 10 19  4  0
 11 25  4  0
 13 14  4  0
 15 16  4  0
 15 17  4  0
 15 21  4  0
 16 24  1  0
 16 25  4  0
 20 24  1  0
 20 26  2  0
 21 23  4  0
 22 23  1  0
M  END
$$$$

 Created by Python create_sdf_string function

 26 28  0  0  0  0  0  0  0  0999 V2000
   12.4616    8.6700   19.4180 N   0  0  0  0  0  0  0  0  0  0  0  0
   11.8329   10.8148   18.6769 N   0  0  0  0  0  0  0  0  0  0  0  0
    6.1021    2.5564   21.0678 C   0  0  0  0  0  0  0  0  0  0  0  0
   10.9097   11.8051   18.4804 C   0  0  0  0  0  0  0  0  0  0  0  0
   11.2280   12.9135   17.5669 C   0  0  0  0  0  0  0  0  0  0  0  0
   12.3782    5.4231   20.7777 C   0  0  0  0  0  0  0  0  0  0  0  0
    7.7365    4.6508   21.6987 C   0  0  0  0  0  0  0  0  0  0  0  0
   13.0186   11.0102   18.0020 C   0  0  0  0  0  0  0  0  0  0  0  0
    8.6628    5.7088   21.8871 N   0  0  0  0  0  0  0  0  0  0  0  0
    5.6516    3.5258   21.9140 C   0  0  0  0  0  0  0  0  0  0  0  0
   11.5863    9.6815   19.4539 C   0  0  0  0  0  0  0  0  0  0  0  0
   12.9648    4.1543   20.9205 C   0  0  0  0  0  0  0  0  0  0  0  0
    8.2089    3.6265   20.8929 C   0  0  0  0  0  0  0  0  0  0  0  0
    7.3827    2.5724   20.5432 C   0  0  0  0  0  0  0  0  0  0  0  0
   11.1529    7.2750   20.8025 C   0  0  0  0  0  0  0  0  0  0  0  0
   10.2573    8.3215   20.9827 C   0  0  0  0  0  0  0  0  0  0  0  0
   11.1606    5.9378   21.2366 N   0  0  0  0  0  0  0  0  0  0  0  0
    9.8932   11.6736   19.0677 O   0  0  0  0  0  0  0  0  0  0  0  0
    6.4470    4.5850   22.2321 C   0  0  0  0  0  0  0  0  0  0  0  0
    8.4619    6.9895   22.2968 C   0  0  0  0  0  0  0  0  0  0  0  0
   12.2747    7.5102   20.0420 C   0  0  0  0  0  0  0  0  0  0  0  0
   14.2544    6.2142   19.4191 C   0  0  0  0  0  0  0  0  0  0  0  0
   13.0695    6.3705   20.0375 N   0  0  0  0  0  0  0  0  0  0  0  0
    9.1913    8.0876   21.8361 N   0  0  0  0  0  0  0  0  0  0  0  0
   10.4739    9.4813   20.2889 C   0  0  0  0  0  0  0  0  0  0  0  0
    7.5551    7.1270   23.1200 O   0  0  0  0  0  0  0  0  0  0  0  0
  1 11  4  0
  1 21  4  0
  2  4  1  0
  2  8  1  0
  2 11  1  0
  3 10  4  0
  3 14  4  0
  4  5  1  0
  4 18  2  0
  6 12  1  0
  6 17  4  0
  6 23  4  0
  7  9  1  0
  7 13  4  0
  7 19  4  0
  9 20  1  0
 10 19  4  0
 11 25  4  0
 13 14  4  0
 15 16  4  0
 15 17  4  0
 15 21  4  0
 16 24  1  0
 16 25  4  0
 20 24  1  0
 20 26  2  0
 21 23  4  0
 22 23  1  0
M  END
$$$$

 Created by Python create_sdf_string function

 26 28  0  0  0  0  0  0  0  0999 V2000
   12.4616    8.6700   19.4180 N   0  0  0  0  0  0  0  0  0  0  0  0
   11.8329   10.8148   18.6769 N   0  0  0  0  0  0  0  0  0  0  0  0
    6.1021    2.5564   21.0678 C   0  0  0  0  0  0  0  0  0  0  0  0
   10.9097   11.8051   18.4804 C   0  0  0  0  0  0  0  0  0  0  0  0
   11.2280   12.9135   17.5669 C   0  0  0  0  0  0  0  0  0  0  0  0
   12.3782    5.4231   20.7777 C   0  0  0  0  0  0  0  0  0  0  0  0
    7.7365    4.6508   21.6987 C   0  0  0  0  0  0  0  0  0  0  0  0
   13.0186   11.0102   18.0020 C   0  0  0  0  0  0  0  0  0  0  0  0
    8.6628    5.7088   21.8871 N   0  0  0  0  0  0  0  0  0  0  0  0
    5.6516    3.5258   21.9140 C   0  0  0  0  0  0  0  0  0  0  0  0
   11.5863    9.6815   19.4539 C   0  0  0  0  0  0  0  0  0  0  0  0
   12.9648    4.1543   20.9205 C   0  0  0  0  0  0  0  0  0  0  0  0
    8.2089    3.6265   20.8929 C   0  0  0  0  0  0  0  0  0  0  0  0
    7.3827    2.5724   20.5432 C   0  0  0  0  0  0  0  0  0  0  0  0
   11.1529    7.2750   20.8025 C   0  0  0  0  0  0  0  0  0  0  0  0
   10.2573    8.3215   20.9827 C   0  0  0  0  0  0  0  0  0  0  0  0
   11.1606    5.9378   21.2366 N   0  0  0  0  0  0  0  0  0  0  0  0
    9.8932   11.6736   19.0677 O   0  0  0  0  0  0  0  0  0  0  0  0
    6.4470    4.5850   22.2321 C   0  0  0  0  0  0  0  0  0  0  0  0
    8.4619    6.9895   22.2968 C   0  0  0  0  0  0  0  0  0  0  0  0
   12.2747    7.5102   20.0420 C   0  0  0  0  0  0  0  0  0  0  0  0
   14.2544    6.2142   19.4191 C   0  0  0  0  0  0  0  0  0  0  0  0
   13.0695    6.3705   20.0375 N   0  0  0  0  0  0  0  0  0  0  0  0
    9.1913    8.0876   21.8361 N   0  0  0  0  0  0  0  0  0  0  0  0
   10.4739    9.4813   20.2889 C   0  0  0  0  0  0  0  0  0  0  0  0
    7.5551    7.1270   23.1200 O   0  0  0  0  0  0  0  0  0  0  0  0
  1 11  4  0
  1 21  4  0
  2  4  1  0
  2  8  1  0
  2 11  1  0
  3 10  4  0
  3 14  4  0
  4  5  1  0
  4 18  2  0
  6 12  1  0
  6 17  4  0
  6 23  4  0
  7  9  1  0
  7 13  4  0
  7 19  4  0
  9 20  1  0
 10 19  4  0
 11 25  4  0
 13 14  4  0
 15 16  4  0
 15 17  4  0
 15 21  4  0
 16 24  1  0
 16 25  4  0
 20 24  1  0
 20 26  2  0
 21 23  4  0
 22 23  1  0
M  END
$$$$

 Created by Python create_sdf_string function

 26 28  0  0  0  0  0  0  0  0999 V2000
   12.4616    8.6700   19.4180 N   0  0  0  0  0  0  0  0  0  0  0  0
   11.8329   10.8148   18.6769 N   0  0  0  0  0  0  0  0  0  0  0  0
    6.1021    2.5564   21.0678 C   0  0  0  0  0  0  0  0  0  0  0  0
   10.9097   11.8051   18.4804 C   0  0  0  0  0  0  0  0  0  0  0  0
   11.2280   12.9135   17.5669 C   0  0  0  0  0  0  0  0  0  0  0  0
   12.3782    5.4231   20.7777 C   0  0  0  0  0  0  0  0  0  0  0  0
    7.7365    4.6508   21.6987 C   0  0  0  0  0  0  0  0  0  0  0  0
   13.0186   11.0102   18.0020 C   0  0  0  0  0  0  0  0  0  0  0  0
    8.6628    5.7088   21.8871 N   0  0  0  0  0  0  0  0  0  0  0  0
    5.6516    3.5258   21.9140 C   0  0  0  0  0  0  0  0  0  0  0  0
   11.5863    9.6815   19.4539 C   0  0  0  0  0  0  0  0  0  0  0  0
   12.9648    4.1543   20.9205 C   0  0  0  0  0  0  0  0  0  0  0  0
    8.2089    3.6265   20.8929 C   0  0  0  0  0  0  0  0  0  0  0  0
    7.3827    2.5724   20.5432 C   0  0  0  0  0  0  0  0  0  0  0  0
   11.1529    7.2750   20.8025 C   0  0  0  0  0  0  0  0  0  0  0  0
   10.2573    8.3215   20.9827 C   0  0  0  0  0  0  0  0  0  0  0  0
   11.1606    5.9378   21.2366 N   0  0  0  0  0  0  0  0  0  0  0  0
    9.8932   11.6736   19.0677 O   0  0  0  0  0  0  0  0  0  0  0  0
    6.4470    4.5850   22.2321 C   0  0  0  0  0  0  0  0  0  0  0  0
    8.4619    6.9895   22.2968 C   0  0  0  0  0  0  0  0  0  0  0  0
   12.2747    7.5102   20.0420 C   0  0  0  0  0  0  0  0  0  0  0  0
   14.2544    6.2142   19.4191 C   0  0  0  0  0  0  0  0  0  0  0  0
   13.0695    6.3705   20.0375 N   0  0  0  0  0  0  0  0  0  0  0  0
    9.1913    8.0876   21.8361 N   0  0  0  0  0  0  0  0  0  0  0  0
   10.4739    9.4813   20.2889 C   0  0  0  0  0  0  0  0  0  0  0  0
    7.5551    7.1270   23.1200 O   0  0  0  0  0  0  0  0  0  0  0  0
  1 11  4  0
  1 21  4  0
  2  4  1  0
  2  8  1  0
  2 11  1  0
  3 10  4  0
  3 14  4  0
  4  5  1  0
  4 18  2  0
  6 12  1  0
  6 17  4  0
  6 23  4  0
  7  9  1  0
  7 13  4  0
  7 19  4  0
  9 20  1  0
 10 19  4  0
 11 25  4  0
 13 14  4  0
 15 16  4  0
 15 17  4  0
 15 21  4  0
 16 24  1  0
 16 25  4  0
 20 24  1  0
 20 26  2  0
 21 23  4  0
 22 23  1  0
M  END
$$$$

 Created by Python create_sdf_string function

 26 28  0  0  0  0  0  0  0  0999 V2000
   12.4616    8.6700   19.4180 N   0  0  0  0  0  0  0  0  0  0  0  0
   11.8329   10.8148   18.6769 N   0  0  0  0  0  0  0  0  0  0  0  0
    6.1021    2.5564   21.0678 C   0  0  0  0  0  0  0  0  0  0  0  0
   10.9097   11.8051   18.4804 C   0  0  0  0  0  0  0  0  0  0  0  0
   11.2280   12.9135   17.5669 C   0  0  0  0  0  0  0  0  0  0  0  0
   12.3782    5.4231   20.7777 C   0  0  0  0  0  0  0  0  0  0  0  0
    7.7365    4.6508   21.6987 C   0  0  0  0  0  0  0  0  0  0  0  0
   13.0186   11.0102   18.0020 C   0  0  0  0  0  0  0  0  0  0  0  0
    8.6628    5.7088   21.8871 N   0  0  0  0  0  0  0  0  0  0  0  0
    5.6516    3.5258   21.9140 C   0  0  0  0  0  0  0  0  0  0  0  0
   11.5863    9.6815   19.4539 C   0  0  0  0  0  0  0  0  0  0  0  0
   12.9648    4.1543   20.9205 C   0  0  0  0  0  0  0  0  0  0  0  0
    8.2089    3.6265   20.8929 C   0  0  0  0  0  0  0  0  0  0  0  0
    7.3827    2.5724   20.5432 C   0  0  0  0  0  0  0  0  0  0  0  0
   11.1529    7.2750   20.8025 C   0  0  0  0  0  0  0  0  0  0  0  0
   10.2573    8.3215   20.9827 C   0  0  0  0  0  0  0  0  0  0  0  0
   11.1606    5.9378   21.2366 N   0  0  0  0  0  0  0  0  0  0  0  0
    9.8932   11.6736   19.0677 O   0  0  0  0  0  0  0  0  0  0  0  0
    6.4470    4.5850   22.2321 C   0  0  0  0  0  0  0  0  0  0  0  0
    8.4619    6.9895   22.2968 C   0  0  0  0  0  0  0  0  0  0  0  0
   12.2747    7.5102   20.0420 C   0  0  0  0  0  0  0  0  0  0  0  0
   14.2544    6.2142   19.4191 C   0  0  0  0  0  0  0  0  0  0  0  0
   13.0695    6.3705   20.0375 N   0  0  0  0  0  0  0  0  0  0  0  0
    9.1913    8.0876   21.8361 N   0  0  0  0  0  0  0  0  0  0  0  0
   10.4739    9.4813   20.2889 C   0  0  0  0  0  0  0  0  0  0  0  0
    7.5551    7.1270   23.1200 O   0  0  0  0  0  0  0  0  0  0  0  0
  1 11  4  0
  1 21  4  0
  2  4  1  0
  2  8  1  0
  2 11  1  0
  3 10  4  0
  3 14  4  0
  4  5  1  0
  4 18  2  0
  6 12  1  0
  6 17  4  0
  6 23  4  0
  7  9  1  0
  7 13  4  0
  7 19  4  0
  9 20  1  0
 10 19  4  0
 11 25  4  0
 13 14  4  0
 15 16  4  0
 15 17  4  0
 15 21  4  0
 16 24  1  0
 16 25  4  0
 20 24  1  0
 20 26  2  0
 21 23  4  0
 22 23  1  0
M  END
$$$$

 Created by Python create_sdf_string function

 26 28  0  0  0  0  0  0  0  0999 V2000
   12.4616    8.6700   19.4180 N   0  0  0  0  0  0  0  0  0  0  0  0
   11.8329   10.8148   18.6769 N   0  0  0  0  0  0  0  0  0  0  0  0
    6.1021    2.5564   21.0678 C   0  0  0  0  0  0  0  0  0  0  0  0
   10.9097   11.8051   18.4804 C   0  0  0  0  0  0  0  0  0  0  0  0
   11.2280   12.9135   17.5669 C   0  0  0  0  0  0  0  0  0  0  0  0
   12.3782    5.4231   20.7777 C   0  0  0  0  0  0  0  0  0  0  0  0
    7.7365    4.6508   21.6987 C   0  0  0  0  0  0  0  0  0  0  0  0
   13.0186   11.0102   18.0020 C   0  0  0  0  0  0  0  0  0  0  0  0
    8.6628    5.7088   21.8871 N   0  0  0  0  0  0  0  0  0  0  0  0
    5.6516    3.5258   21.9140 C   0  0  0  0  0  0  0  0  0  0  0  0
   11.5863    9.6815   19.4539 C   0  0  0  0  0  0  0  0  0  0  0  0
   12.9648    4.1543   20.9205 C   0  0  0  0  0  0  0  0  0  0  0  0
    8.2089    3.6265   20.8929 C   0  0  0  0  0  0  0  0  0  0  0  0
    7.3827    2.5724   20.5432 C   0  0  0  0  0  0  0  0  0  0  0  0
   11.1529    7.2750   20.8025 C   0  0  0  0  0  0  0  0  0  0  0  0
   10.2573    8.3215   20.9827 C   0  0  0  0  0  0  0  0  0  0  0  0
   11.1606    5.9378   21.2366 N   0  0  0  0  0  0  0  0  0  0  0  0
    9.8932   11.6736   19.0677 O   0  0  0  0  0  0  0  0  0  0  0  0
    6.4470    4.5850   22.2321 C   0  0  0  0  0  0  0  0  0  0  0  0
    8.4619    6.9895   22.2968 C   0  0  0  0  0  0  0  0  0  0  0  0
   12.2747    7.5102   20.0420 C   0  0  0  0  0  0  0  0  0  0  0  0
   14.2544    6.2142   19.4191 C   0  0  0  0  0  0  0  0  0  0  0  0
   13.0695    6.3705   20.0375 N   0  0  0  0  0  0  0  0  0  0  0  0
    9.1913    8.0876   21.8361 N   0  0  0  0  0  0  0  0  0  0  0  0
   10.4739    9.4813   20.2889 C   0  0  0  0  0  0  0  0  0  0  0  0
    7.5551    7.1270   23.1200 O   0  0  0  0  0  0  0  0  0  0  0  0
  1 11  4  0
  1 21  4  0
  2  4  1  0
  2  8  1  0
  2 11  1  0
  3 10  4  0
  3 14  4  0
  4  5  1  0
  4 18  2  0
  6 12  1  0
  6 17  4  0
  6 23  4  0
  7  9  1  0
  7 13  4  0
  7 19  4  0
  9 20  1  0
 10 19  4  0
 11 25  4  0
 13 14  4  0
 15 16  4  0
 15 17  4  0
 15 21  4  0
 16 24  1  0
 16 25  4  0
 20 24  1  0
 20 26  2  0
 21 23  4  0
 22 23  1  0
M  END
$$$$

 Created by Python create_sdf_string function

 26 28  0  0  0  0  0  0  0  0999 V2000
   12.4616    8.6700   19.4180 N   0  0  0  0  0  0  0  0  0  0  0  0
   11.8329   10.8148   18.6769 N   0  0  0  0  0  0  0  0  0  0  0  0
    6.1021    2.5564   21.0678 C   0  0  0  0  0  0  0  0  0  0  0  0
   10.9097   11.8051   18.4804 C   0  0  0  0  0  0  0  0  0  0  0  0
   11.2280   12.9135   17.5669 C   0  0  0  0  0  0  0  0  0  0  0  0
   12.3782    5.4231   20.7777 C   0  0  0  0  0  0  0  0  0  0  0  0
    7.7365    4.6508   21.6987 C   0  0  0  0  0  0  0  0  0  0  0  0
   13.0186   11.0102   18.0020 C   0  0  0  0  0  0  0  0  0  0  0  0
    8.6628    5.7088   21.8871 N   0  0  0  0  0  0  0  0  0  0  0  0
    5.6516    3.5258   21.9140 C   0  0  0  0  0  0  0  0  0  0  0  0
   11.5863    9.6815   19.4539 C   0  0  0  0  0  0  0  0  0  0  0  0
   12.9648    4.1543   20.9205 C   0  0  0  0  0  0  0  0  0  0  0  0
    8.2089    3.6265   20.8929 C   0  0  0  0  0  0  0  0  0  0  0  0
    7.3827    2.5724   20.5432 C   0  0  0  0  0  0  0  0  0  0  0  0
   11.1529    7.2750   20.8025 C   0  0  0  0  0  0  0  0  0  0  0  0
   10.2573    8.3215   20.9827 C   0  0  0  0  0  0  0  0  0  0  0  0
   11.1606    5.9378   21.2366 N   0  0  0  0  0  0  0  0  0  0  0  0
    9.8932   11.6736   19.0677 O   0  0  0  0  0  0  0  0  0  0  0  0
    6.4470    4.5850   22.2321 C   0  0  0  0  0  0  0  0  0  0  0  0
    8.4619    6.9895   22.2968 C   0  0  0  0  0  0  0  0  0  0  0  0
   12.2747    7.5102   20.0420 C   0  0  0  0  0  0  0  0  0  0  0  0
   14.2544    6.2142   19.4191 C   0  0  0  0  0  0  0  0  0  0  0  0
   13.0695    6.3705   20.0375 N   0  0  0  0  0  0  0  0  0  0  0  0
    9.1913    8.0876   21.8361 N   0  0  0  0  0  0  0  0  0  0  0  0
   10.4739    9.4813   20.2889 C   0  0  0  0  0  0  0  0  0  0  0  0
    7.5551    7.1270   23.1200 O   0  0  0  0  0  0  0  0  0  0  0  0
  1 11  4  0
  1 21  4  0
  2  4  1  0
  2  8  1  0
  2 11  1  0
  3 10  4  0
  3 14  4  0
  4  5  1  0
  4 18  2  0
  6 12  1  0
  6 17  4  0
  6 23  4  0
  7  9  1  0
  7 13  4  0
  7 19  4  0
  9 20  1  0
 10 19  4  0
 11 25  4  0
 13 14  4  0
 15 16  4  0
 15 17  4  0
 15 21  4  0
 16 24  1  0
 16 25  4  0
 20 24  1  0
 20 26  2  0
 21 23  4  0
 22 23  1  0
M  END
$$$$

 Created by Python create_sdf_string function

 26 28  0  0  0  0  0  0  0  0999 V2000
   12.4616    8.6700   19.4180 N   0  0  0  0  0  0  0  0  0  0  0  0
   11.8329   10.8148   18.6769 N   0  0  0  0  0  0  0  0  0  0  0  0
    6.1021    2.5564   21.0678 C   0  0  0  0  0  0  0  0  0  0  0  0
   10.9097   11.8051   18.4804 C   0  0  0  0  0  0  0  0  0  0  0  0
   11.2280   12.9135   17.5669 C   0  0  0  0  0  0  0  0  0  0  0  0
   12.3782    5.4231   20.7777 C   0  0  0  0  0  0  0  0  0  0  0  0
    7.7365    4.6508   21.6987 C   0  0  0  0  0  0  0  0  0  0  0  0
   13.0186   11.0102   18.0020 C   0  0  0  0  0  0  0  0  0  0  0  0
    8.6628    5.7088   21.8871 N   0  0  0  0  0  0  0  0  0  0  0  0
    5.6516    3.5258   21.9140 C   0  0  0  0  0  0  0  0  0  0  0  0
   11.5863    9.6815   19.4539 C   0  0  0  0  0  0  0  0  0  0  0  0
   12.9648    4.1543   20.9205 C   0  0  0  0  0  0  0  0  0  0  0  0
    8.2089    3.6265   20.8929 C   0  0  0  0  0  0  0  0  0  0  0  0
    7.3827    2.5724   20.5432 C   0  0  0  0  0  0  0  0  0  0  0  0
   11.1529    7.2750   20.8025 C   0  0  0  0  0  0  0  0  0  0  0  0
   10.2573    8.3215   20.9827 C   0  0  0  0  0  0  0  0  0  0  0  0
   11.1606    5.9378   21.2366 N   0  0  0  0  0  0  0  0  0  0  0  0
    9.8932   11.6736   19.0677 O   0  0  0  0  0  0  0  0  0  0  0  0
    6.4470    4.5850   22.2321 C   0  0  0  0  0  0  0  0  0  0  0  0
    8.4619    6.9895   22.2968 C   0  0  0  0  0  0  0  0  0  0  0  0
   12.2747    7.5102   20.0420 C   0  0  0  0  0  0  0  0  0  0  0  0
   14.2544    6.2142   19.4191 C   0  0  0  0  0  0  0  0  0  0  0  0
   13.0695    6.3705   20.0375 N   0  0  0  0  0  0  0  0  0  0  0  0
    9.1913    8.0876   21.8361 N   0  0  0  0  0  0  0  0  0  0  0  0
   10.4739    9.4813   20.2889 C   0  0  0  0  0  0  0  0  0  0  0  0
    7.5551    7.1270   23.1200 O   0  0  0  0  0  0  0  0  0  0  0  0
  1 11  4  0
  1 21  4  0
  2  4  1  0
  2  8  1  0
  2 11  1  0
  3 10  4  0
  3 14  4  0
  4  5  1  0
  4 18  2  0
  6 12  1  0
  6 17  4  0
  6 23  4  0
  7  9  1  0
  7 13  4  0
  7 19  4  0
  9 20  1  0
 10 19  4  0
 11 25  4  0
 13 14  4  0
 15 16  4  0
 15 17  4  0
 15 21  4  0
 16 24  1  0
 16 25  4  0
 20 24  1  0
 20 26  2  0
 21 23  4  0
 22 23  1  0
M  END
$$$$

 Created by Python create_sdf_string function

 26 28  0  0  0  0  0  0  0  0999 V2000
   12.4616    8.6700   19.4180 N   0  0  0  0  0  0  0  0  0  0  0  0
   11.8329   10.8148   18.6769 N   0  0  0  0  0  0  0  0  0  0  0  0
    6.1021    2.5564   21.0678 C   0  0  0  0  0  0  0  0  0  0  0  0
   10.9097   11.8051   18.4804 C   0  0  0  0  0  0  0  0  0  0  0  0
   11.2280   12.9135   17.5669 C   0  0  0  0  0  0  0  0  0  0  0  0
   12.3782    5.4231   20.7777 C   0  0  0  0  0  0  0  0  0  0  0  0
    7.7365    4.6508   21.6987 C   0  0  0  0  0  0  0  0  0  0  0  0
   13.0186   11.0102   18.0020 C   0  0  0  0  0  0  0  0  0  0  0  0
    8.6628    5.7088   21.8871 N   0  0  0  0  0  0  0  0  0  0  0  0
    5.6516    3.5258   21.9140 C   0  0  0  0  0  0  0  0  0  0  0  0
   11.5863    9.6815   19.4539 C   0  0  0  0  0  0  0  0  0  0  0  0
   12.9648    4.1543   20.9205 C   0  0  0  0  0  0  0  0  0  0  0  0
    8.2089    3.6265   20.8929 C   0  0  0  0  0  0  0  0  0  0  0  0
    7.3827    2.5724   20.5432 C   0  0  0  0  0  0  0  0  0  0  0  0
   11.1529    7.2750   20.8025 C   0  0  0  0  0  0  0  0  0  0  0  0
   10.2573    8.3215   20.9827 C   0  0  0  0  0  0  0  0  0  0  0  0
   11.1606    5.9378   21.2366 N   0  0  0  0  0  0  0  0  0  0  0  0
    9.8932   11.6736   19.0677 O   0  0  0  0  0  0  0  0  0  0  0  0
    6.4470    4.5850   22.2321 C   0  0  0  0  0  0  0  0  0  0  0  0
    8.4619    6.9895   22.2968 C   0  0  0  0  0  0  0  0  0  0  0  0
   12.2747    7.5102   20.0420 C   0  0  0  0  0  0  0  0  0  0  0  0
   14.2544    6.2142   19.4191 C   0  0  0  0  0  0  0  0  0  0  0  0
   13.0695    6.3705   20.0375 N   0  0  0  0  0  0  0  0  0  0  0  0
    9.1913    8.0876   21.8361 N   0  0  0  0  0  0  0  0  0  0  0  0
   10.4739    9.4813   20.2889 C   0  0  0  0  0  0  0  0  0  0  0  0
    7.5551    7.1270   23.1200 O   0  0  0  0  0  0  0  0  0  0  0  0
  1 11  4  0
  1 21  4  0
  2  4  1  0
  2  8  1  0
  2 11  1  0
  3 10  4  0
  3 14  4  0
  4  5  1  0
  4 18  2  0
  6 12  1  0
  6 17  4  0
  6 23  4  0
  7  9  1  0
  7 13  4  0
  7 19  4  0
  9 20  1  0
 10 19  4  0
 11 25  4  0
 13 14  4  0
 15 16  4  0
 15 17  4  0
 15 21  4  0
 16 24  1  0
 16 25  4  0
 20 24  1  0
 20 26  2  0
 21 23  4  0
 22 23  1  0
M  END
$$$$

 Created by Python create_sdf_string function

 26 28  0  0  0  0  0  0  0  0999 V2000
   12.4616    8.6700   19.4180 N   0  0  0  0  0  0  0  0  0  0  0  0
   11.8329   10.8148   18.6769 N   0  0  0  0  0  0  0  0  0  0  0  0
    6.1021    2.5564   21.0678 C   0  0  0  0  0  0  0  0  0  0  0  0
   10.9097   11.8051   18.4804 C   0  0  0  0  0  0  0  0  0  0  0  0
   11.2280   12.9135   17.5669 C   0  0  0  0  0  0  0  0  0  0  0  0
   12.3782    5.4231   20.7777 C   0  0  0  0  0  0  0  0  0  0  0  0
    7.7365    4.6508   21.6987 C   0  0  0  0  0  0  0  0  0  0  0  0
   13.0186   11.0102   18.0020 C   0  0  0  0  0  0  0  0  0  0  0  0
    8.6628    5.7088   21.8871 N   0  0  0  0  0  0  0  0  0  0  0  0
    5.6516    3.5258   21.9140 C   0  0  0  0  0  0  0  0  0  0  0  0
   11.5863    9.6815   19.4539 C   0  0  0  0  0  0  0  0  0  0  0  0
   12.9648    4.1543   20.9205 C   0  0  0  0  0  0  0  0  0  0  0  0
    8.2089    3.6265   20.8929 C   0  0  0  0  0  0  0  0  0  0  0  0
    7.3827    2.5724   20.5432 C   0  0  0  0  0  0  0  0  0  0  0  0
   11.1529    7.2750   20.8025 C   0  0  0  0  0  0  0  0  0  0  0  0
   10.2573    8.3215   20.9827 C   0  0  0  0  0  0  0  0  0  0  0  0
   11.1606    5.9378   21.2366 N   0  0  0  0  0  0  0  0  0  0  0  0
    9.8932   11.6736   19.0677 O   0  0  0  0  0  0  0  0  0  0  0  0
    6.4470    4.5850   22.2321 C   0  0  0  0  0  0  0  0  0  0  0  0
    8.4619    6.9895   22.2968 C   0  0  0  0  0  0  0  0  0  0  0  0
   12.2747    7.5102   20.0420 C   0  0  0  0  0  0  0  0  0  0  0  0
   14.2544    6.2142   19.4191 C   0  0  0  0  0  0  0  0  0  0  0  0
   13.0695    6.3705   20.0375 N   0  0  0  0  0  0  0  0  0  0  0  0
    9.1913    8.0876   21.8361 N   0  0  0  0  0  0  0  0  0  0  0  0
   10.4739    9.4813   20.2889 C   0  0  0  0  0  0  0  0  0  0  0  0
    7.5551    7.1270   23.1200 O   0  0  0  0  0  0  0  0  0  0  0  0
  1 11  4  0
  1 21  4  0
  2  4  1  0
  2  8  1  0
  2 11  1  0
  3 10  4  0
  3 14  4  0
  4  5  1  0
  4 18  2  0
  6 12  1  0
  6 17  4  0
  6 23  4  0
  7  9  1  0
  7 13  4  0
  7 19  4  0
  9 20  1  0
 10 19  4  0
 11 25  4  0
 13 14  4  0
 15 16  4  0
 15 17  4  0
 15 21  4  0
 16 24  1  0
 16 25  4  0
 20 24  1  0
 20 26  2  0
 21 23  4  0
 22 23  1  0
M  END
$$$$

 Created by Python create_sdf_string function

 26 28  0  0  0  0  0  0  0  0999 V2000
   12.4616    8.6700   19.4180 N   0  0  0  0  0  0  0  0  0  0  0  0
   11.8329   10.8148   18.6769 N   0  0  0  0  0  0  0  0  0  0  0  0
    6.1021    2.5564   21.0678 C   0  0  0  0  0  0  0  0  0  0  0  0
   10.9097   11.8051   18.4804 C   0  0  0  0  0  0  0  0  0  0  0  0
   11.2280   12.9135   17.5669 C   0  0  0  0  0  0  0  0  0  0  0  0
   12.3782    5.4231   20.7777 C   0  0  0  0  0  0  0  0  0  0  0  0
    7.7365    4.6508   21.6987 C   0  0  0  0  0  0  0  0  0  0  0  0
   13.0186   11.0102   18.0020 C   0  0  0  0  0  0  0  0  0  0  0  0
    8.6628    5.7088   21.8871 N   0  0  0  0  0  0  0  0  0  0  0  0
    5.6516    3.5258   21.9140 C   0  0  0  0  0  0  0  0  0  0  0  0
   11.5863    9.6815   19.4539 C   0  0  0  0  0  0  0  0  0  0  0  0
   12.9648    4.1543   20.9205 C   0  0  0  0  0  0  0  0  0  0  0  0
    8.2089    3.6265   20.8929 C   0  0  0  0  0  0  0  0  0  0  0  0
    7.3827    2.5724   20.5432 C   0  0  0  0  0  0  0  0  0  0  0  0
   11.1529    7.2750   20.8025 C   0  0  0  0  0  0  0  0  0  0  0  0
   10.2573    8.3215   20.9827 C   0  0  0  0  0  0  0  0  0  0  0  0
   11.1606    5.9378   21.2366 N   0  0  0  0  0  0  0  0  0  0  0  0
    9.8932   11.6736   19.0677 O   0  0  0  0  0  0  0  0  0  0  0  0
    6.4470    4.5850   22.2321 C   0  0  0  0  0  0  0  0  0  0  0  0
    8.4619    6.9895   22.2968 C   0  0  0  0  0  0  0  0  0  0  0  0
   12.2747    7.5102   20.0420 C   0  0  0  0  0  0  0  0  0  0  0  0
   14.2544    6.2142   19.4191 C   0  0  0  0  0  0  0  0  0  0  0  0
   13.0695    6.3705   20.0375 N   0  0  0  0  0  0  0  0  0  0  0  0
    9.1913    8.0876   21.8361 N   0  0  0  0  0  0  0  0  0  0  0  0
   10.4739    9.4813   20.2889 C   0  0  0  0  0  0  0  0  0  0  0  0
    7.5551    7.1270   23.1200 O   0  0  0  0  0  0  0  0  0  0  0  0
  1 11  4  0
  1 21  4  0
  2  4  1  0
  2  8  1  0
  2 11  1  0
  3 10  4  0
  3 14  4  0
  4  5  1  0
  4 18  2  0
  6 12  1  0
  6 17  4  0
  6 23  4  0
  7  9  1  0
  7 13  4  0
  7 19  4  0
  9 20  1  0
 10 19  4  0
 11 25  4  0
 13 14  4  0
 15 16  4  0
 15 17  4  0
 15 21  4  0
 16 24  1  0
 16 25  4  0
 20 24  1  0
 20 26  2  0
 21 23  4  0
 22 23  1  0
M  END
$$$$

 Created by Python create_sdf_string function

 26 28  0  0  0  0  0  0  0  0999 V2000
   12.4616    8.6700   19.4180 N   0  0  0  0  0  0  0  0  0  0  0  0
   11.8329   10.8148   18.6769 N   0  0  0  0  0  0  0  0  0  0  0  0
    6.1021    2.5564   21.0678 C   0  0  0  0  0  0  0  0  0  0  0  0
   10.9097   11.8051   18.4804 C   0  0  0  0  0  0  0  0  0  0  0  0
   11.2280   12.9135   17.5669 C   0  0  0  0  0  0  0  0  0  0  0  0
   12.3782    5.4231   20.7777 C   0  0  0  0  0  0  0  0  0  0  0  0
    7.7365    4.6508   21.6987 C   0  0  0  0  0  0  0  0  0  0  0  0
   13.0186   11.0102   18.0020 C   0  0  0  0  0  0  0  0  0  0  0  0
    8.6628    5.7088   21.8871 N   0  0  0  0  0  0  0  0  0  0  0  0
    5.6516    3.5258   21.9140 C   0  0  0  0  0  0  0  0  0  0  0  0
   11.5863    9.6815   19.4539 C   0  0  0  0  0  0  0  0  0  0  0  0
   12.9648    4.1543   20.9205 C   0  0  0  0  0  0  0  0  0  0  0  0
    8.2089    3.6265   20.8929 C   0  0  0  0  0  0  0  0  0  0  0  0
    7.3827    2.5724   20.5432 C   0  0  0  0  0  0  0  0  0  0  0  0
   11.1529    7.2750   20.8025 C   0  0  0  0  0  0  0  0  0  0  0  0
   10.2573    8.3215   20.9827 C   0  0  0  0  0  0  0  0  0  0  0  0
   11.1606    5.9378   21.2366 N   0  0  0  0  0  0  0  0  0  0  0  0
    9.8932   11.6736   19.0677 O   0  0  0  0  0  0  0  0  0  0  0  0
    6.4470    4.5850   22.2321 C   0  0  0  0  0  0  0  0  0  0  0  0
    8.4619    6.9895   22.2968 C   0  0  0  0  0  0  0  0  0  0  0  0
   12.2747    7.5102   20.0420 C   0  0  0  0  0  0  0  0  0  0  0  0
   14.2544    6.2142   19.4191 C   0  0  0  0  0  0  0  0  0  0  0  0
   13.0695    6.3705   20.0375 N   0  0  0  0  0  0  0  0  0  0  0  0
    9.1913    8.0876   21.8361 N   0  0  0  0  0  0  0  0  0  0  0  0
   10.4739    9.4813   20.2889 C   0  0  0  0  0  0  0  0  0  0  0  0
    7.5551    7.1270   23.1200 O   0  0  0  0  0  0  0  0  0  0  0  0
  1 11  4  0
  1 21  4  0
  2  4  1  0
  2  8  1  0
  2 11  1  0
  3 10  4  0
  3 14  4  0
  4  5  1  0
  4 18  2  0
  6 12  1  0
  6 17  4  0
  6 23  4  0
  7  9  1  0
  7 13  4  0
  7 19  4  0
  9 20  1  0
 10 19  4  0
 11 25  4  0
 13 14  4  0
 15 16  4  0
 15 17  4  0
 15 21  4  0
 16 24  1  0
 16 25  4  0
 20 24  1  0
 20 26  2  0
 21 23  4  0
 22 23  1  0
M  END
$$$$

 Created by Python create_sdf_string function

 26 28  0  0  0  0  0  0  0  0999 V2000
   12.4616    8.6700   19.4180 N   0  0  0  0  0  0  0  0  0  0  0  0
   11.8329   10.8148   18.6769 N   0  0  0  0  0  0  0  0  0  0  0  0
    6.1021    2.5564   21.0678 C   0  0  0  0  0  0  0  0  0  0  0  0
   10.9097   11.8051   18.4804 C   0  0  0  0  0  0  0  0  0  0  0  0
   11.2280   12.9135   17.5669 C   0  0  0  0  0  0  0  0  0  0  0  0
   12.3782    5.4231   20.7777 C   0  0  0  0  0  0  0  0  0  0  0  0
    7.7365    4.6508   21.6987 C   0  0  0  0  0  0  0  0  0  0  0  0
   13.0186   11.0102   18.0020 C   0  0  0  0  0  0  0  0  0  0  0  0
    8.6628    5.7088   21.8871 N   0  0  0  0  0  0  0  0  0  0  0  0
    5.6516    3.5258   21.9140 C   0  0  0  0  0  0  0  0  0  0  0  0
   11.5863    9.6815   19.4539 C   0  0  0  0  0  0  0  0  0  0  0  0
   12.9648    4.1543   20.9205 C   0  0  0  0  0  0  0  0  0  0  0  0
    8.2089    3.6265   20.8929 C   0  0  0  0  0  0  0  0  0  0  0  0
    7.3827    2.5724   20.5432 C   0  0  0  0  0  0  0  0  0  0  0  0
   11.1529    7.2750   20.8025 C   0  0  0  0  0  0  0  0  0  0  0  0
   10.2573    8.3215   20.9827 C   0  0  0  0  0  0  0  0  0  0  0  0
   11.1606    5.9378   21.2366 N   0  0  0  0  0  0  0  0  0  0  0  0
    9.8932   11.6736   19.0677 O   0  0  0  0  0  0  0  0  0  0  0  0
    6.4470    4.5850   22.2321 C   0  0  0  0  0  0  0  0  0  0  0  0
    8.4619    6.9895   22.2968 C   0  0  0  0  0  0  0  0  0  0  0  0
   12.2747    7.5102   20.0420 C   0  0  0  0  0  0  0  0  0  0  0  0
   14.2544    6.2142   19.4191 C   0  0  0  0  0  0  0  0  0  0  0  0
   13.0695    6.3705   20.0375 N   0  0  0  0  0  0  0  0  0  0  0  0
    9.1913    8.0876   21.8361 N   0  0  0  0  0  0  0  0  0  0  0  0
   10.4739    9.4813   20.2889 C   0  0  0  0  0  0  0  0  0  0  0  0
    7.5551    7.1270   23.1200 O   0  0  0  0  0  0  0  0  0  0  0  0
  1 11  4  0
  1 21  4  0
  2  4  1  0
  2  8  1  0
  2 11  1  0
  3 10  4  0
  3 14  4  0
  4  5  1  0
  4 18  2  0
  6 12  1  0
  6 17  4  0
  6 23  4  0
  7  9  1  0
  7 13  4  0
  7 19  4  0
  9 20  1  0
 10 19  4  0
 11 25  4  0
 13 14  4  0
 15 16  4  0
 15 17  4  0
 15 21  4  0
 16 24  1  0
 16 25  4  0
 20 24  1  0
 20 26  2  0
 21 23  4  0
 22 23  1  0
M  END
$$$$

 Created by Python create_sdf_string function

 26 28  0  0  0  0  0  0  0  0999 V2000
   12.4616    8.6700   19.4180 N   0  0  0  0  0  0  0  0  0  0  0  0
   11.8329   10.8148   18.6769 N   0  0  0  0  0  0  0  0  0  0  0  0
    6.1021    2.5564   21.0678 C   0  0  0  0  0  0  0  0  0  0  0  0
   10.9097   11.8051   18.4804 C   0  0  0  0  0  0  0  0  0  0  0  0
   11.2280   12.9135   17.5669 C   0  0  0  0  0  0  0  0  0  0  0  0
   12.3782    5.4231   20.7777 C   0  0  0  0  0  0  0  0  0  0  0  0
    7.7365    4.6508   21.6987 C   0  0  0  0  0  0  0  0  0  0  0  0
   13.0186   11.0102   18.0020 C   0  0  0  0  0  0  0  0  0  0  0  0
    8.6628    5.7088   21.8871 N   0  0  0  0  0  0  0  0  0  0  0  0
    5.6516    3.5258   21.9140 C   0  0  0  0  0  0  0  0  0  0  0  0
   11.5863    9.6815   19.4539 C   0  0  0  0  0  0  0  0  0  0  0  0
   12.9648    4.1543   20.9205 C   0  0  0  0  0  0  0  0  0  0  0  0
    8.2089    3.6265   20.8929 C   0  0  0  0  0  0  0  0  0  0  0  0
    7.3827    2.5724   20.5432 C   0  0  0  0  0  0  0  0  0  0  0  0
   11.1529    7.2750   20.8025 C   0  0  0  0  0  0  0  0  0  0  0  0
   10.2573    8.3215   20.9827 C   0  0  0  0  0  0  0  0  0  0  0  0
   11.1606    5.9378   21.2366 N   0  0  0  0  0  0  0  0  0  0  0  0
    9.8932   11.6736   19.0677 O   0  0  0  0  0  0  0  0  0  0  0  0
    6.4470    4.5850   22.2321 C   0  0  0  0  0  0  0  0  0  0  0  0
    8.4619    6.9895   22.2968 C   0  0  0  0  0  0  0  0  0  0  0  0
   12.2747    7.5102   20.0420 C   0  0  0  0  0  0  0  0  0  0  0  0
   14.2544    6.2142   19.4191 C   0  0  0  0  0  0  0  0  0  0  0  0
   13.0695    6.3705   20.0375 N   0  0  0  0  0  0  0  0  0  0  0  0
    9.1913    8.0876   21.8361 N   0  0  0  0  0  0  0  0  0  0  0  0
   10.4739    9.4813   20.2889 C   0  0  0  0  0  0  0  0  0  0  0  0
    7.5551    7.1270   23.1200 O   0  0  0  0  0  0  0  0  0  0  0  0
  1 11  4  0
  1 21  4  0
  2  4  1  0
  2  8  1  0
  2 11  1  0
  3 10  4  0
  3 14  4  0
  4  5  1  0
  4 18  2  0
  6 12  1  0
  6 17  4  0
  6 23  4  0
  7  9  1  0
  7 13  4  0
  7 19  4  0
  9 20  1  0
 10 19  4  0
 11 25  4  0
 13 14  4  0
 15 16  4  0
 15 17  4  0
 15 21  4  0
 16 24  1  0
 16 25  4  0
 20 24  1  0
 20 26  2  0
 21 23  4  0
 22 23  1  0
M  END
$$$$

 Created by Python create_sdf_string function

 26 28  0  0  0  0  0  0  0  0999 V2000
   12.4616    8.6700   19.4180 N   0  0  0  0  0  0  0  0  0  0  0  0
   11.8329   10.8148   18.6769 N   0  0  0  0  0  0  0  0  0  0  0  0
    6.1021    2.5564   21.0678 C   0  0  0  0  0  0  0  0  0  0  0  0
   10.9097   11.8051   18.4804 C   0  0  0  0  0  0  0  0  0  0  0  0
   11.2280   12.9135   17.5669 C   0  0  0  0  0  0  0  0  0  0  0  0
   12.3782    5.4231   20.7777 C   0  0  0  0  0  0  0  0  0  0  0  0
    7.7365    4.6508   21.6987 C   0  0  0  0  0  0  0  0  0  0  0  0
   13.0186   11.0102   18.0020 C   0  0  0  0  0  0  0  0  0  0  0  0
    8.6628    5.7088   21.8871 N   0  0  0  0  0  0  0  0  0  0  0  0
    5.6516    3.5258   21.9140 C   0  0  0  0  0  0  0  0  0  0  0  0
   11.5863    9.6815   19.4539 C   0  0  0  0  0  0  0  0  0  0  0  0
   12.9648    4.1543   20.9205 C   0  0  0  0  0  0  0  0  0  0  0  0
    8.2089    3.6265   20.8929 C   0  0  0  0  0  0  0  0  0  0  0  0
    7.3827    2.5724   20.5432 C   0  0  0  0  0  0  0  0  0  0  0  0
   11.1529    7.2750   20.8025 C   0  0  0  0  0  0  0  0  0  0  0  0
   10.2573    8.3215   20.9827 C   0  0  0  0  0  0  0  0  0  0  0  0
   11.1606    5.9378   21.2366 N   0  0  0  0  0  0  0  0  0  0  0  0
    9.8932   11.6736   19.0677 O   0  0  0  0  0  0  0  0  0  0  0  0
    6.4470    4.5850   22.2321 C   0  0  0  0  0  0  0  0  0  0  0  0
    8.4619    6.9895   22.2968 C   0  0  0  0  0  0  0  0  0  0  0  0
   12.2747    7.5102   20.0420 C   0  0  0  0  0  0  0  0  0  0  0  0
   14.2544    6.2142   19.4191 C   0  0  0  0  0  0  0  0  0  0  0  0
   13.0695    6.3705   20.0375 N   0  0  0  0  0  0  0  0  0  0  0  0
    9.1913    8.0876   21.8361 N   0  0  0  0  0  0  0  0  0  0  0  0
   10.4739    9.4813   20.2889 C   0  0  0  0  0  0  0  0  0  0  0  0
    7.5551    7.1270   23.1200 O   0  0  0  0  0  0  0  0  0  0  0  0
  1 11  4  0
  1 21  4  0
  2  4  1  0
  2  8  1  0
  2 11  1  0
  3 10  4  0
  3 14  4  0
  4  5  1  0
  4 18  2  0
  6 12  1  0
  6 17  4  0
  6 23  4  0
  7  9  1  0
  7 13  4  0
  7 19  4  0
  9 20  1  0
 10 19  4  0
 11 25  4  0
 13 14  4  0
 15 16  4  0
 15 17  4  0
 15 21  4  0
 16 24  1  0
 16 25  4  0
 20 24  1  0
 20 26  2  0
 21 23  4  0
 22 23  1  0
M  END
$$$$

 Created by Python create_sdf_string function

 26 28  0  0  0  0  0  0  0  0999 V2000
   12.4616    8.6700   19.4180 N   0  0  0  0  0  0  0  0  0  0  0  0
   11.8329   10.8148   18.6769 N   0  0  0  0  0  0  0  0  0  0  0  0
    6.1021    2.5564   21.0678 C   0  0  0  0  0  0  0  0  0  0  0  0
   10.9097   11.8051   18.4804 C   0  0  0  0  0  0  0  0  0  0  0  0
   11.2280   12.9135   17.5669 C   0  0  0  0  0  0  0  0  0  0  0  0
   12.3782    5.4231   20.7777 C   0  0  0  0  0  0  0  0  0  0  0  0
    7.7365    4.6508   21.6987 C   0  0  0  0  0  0  0  0  0  0  0  0
   13.0186   11.0102   18.0020 C   0  0  0  0  0  0  0  0  0  0  0  0
    8.6628    5.7088   21.8871 N   0  0  0  0  0  0  0  0  0  0  0  0
    5.6516    3.5258   21.9140 C   0  0  0  0  0  0  0  0  0  0  0  0
   11.5863    9.6815   19.4539 C   0  0  0  0  0  0  0  0  0  0  0  0
   12.9648    4.1543   20.9205 C   0  0  0  0  0  0  0  0  0  0  0  0
    8.2089    3.6265   20.8929 C   0  0  0  0  0  0  0  0  0  0  0  0
    7.3827    2.5724   20.5432 C   0  0  0  0  0  0  0  0  0  0  0  0
   11.1529    7.2750   20.8025 C   0  0  0  0  0  0  0  0  0  0  0  0
   10.2573    8.3215   20.9827 C   0  0  0  0  0  0  0  0  0  0  0  0
   11.1606    5.9378   21.2366 N   0  0  0  0  0  0  0  0  0  0  0  0
    9.8932   11.6736   19.0677 O   0  0  0  0  0  0  0  0  0  0  0  0
    6.4470    4.5850   22.2321 C   0  0  0  0  0  0  0  0  0  0  0  0
    8.4619    6.9895   22.2968 C   0  0  0  0  0  0  0  0  0  0  0  0
   12.2747    7.5102   20.0420 C   0  0  0  0  0  0  0  0  0  0  0  0
   14.2544    6.2142   19.4191 C   0  0  0  0  0  0  0  0  0  0  0  0
   13.0695    6.3705   20.0375 N   0  0  0  0  0  0  0  0  0  0  0  0
    9.1913    8.0876   21.8361 N   0  0  0  0  0  0  0  0  0  0  0  0
   10.4739    9.4813   20.2889 C   0  0  0  0  0  0  0  0  0  0  0  0
    7.5551    7.1270   23.1200 O   0  0  0  0  0  0  0  0  0  0  0  0
  1 11  4  0
  1 21  4  0
  2  4  1  0
  2  8  1  0
  2 11  1  0
  3 10  4  0
  3 14  4  0
  4  5  1  0
  4 18  2  0
  6 12  1  0
  6 17  4  0
  6 23  4  0
  7  9  1  0
  7 13  4  0
  7 19  4  0
  9 20  1  0
 10 19  4  0
 11 25  4  0
 13 14  4  0
 15 16  4  0
 15 17  4  0
 15 21  4  0
 16 24  1  0
 16 25  4  0
 20 24  1  0
 20 26  2  0
 21 23  4  0
 22 23  1  0
M  END
$$$$

 Created by Python create_sdf_string function

 26 28  0  0  0  0  0  0  0  0999 V2000
   12.4616    8.6700   19.4180 N   0  0  0  0  0  0  0  0  0  0  0  0
   11.8329   10.8148   18.6769 N   0  0  0  0  0  0  0  0  0  0  0  0
    6.1021    2.5564   21.0678 C   0  0  0  0  0  0  0  0  0  0  0  0
   10.9097   11.8051   18.4804 C   0  0  0  0  0  0  0  0  0  0  0  0
   11.2280   12.9135   17.5669 C   0  0  0  0  0  0  0  0  0  0  0  0
   12.3782    5.4231   20.7777 C   0  0  0  0  0  0  0  0  0  0  0  0
    7.7365    4.6508   21.6987 C   0  0  0  0  0  0  0  0  0  0  0  0
   13.0186   11.0102   18.0020 C   0  0  0  0  0  0  0  0  0  0  0  0
    8.6628    5.7088   21.8871 N   0  0  0  0  0  0  0  0  0  0  0  0
    5.6516    3.5258   21.9140 C   0  0  0  0  0  0  0  0  0  0  0  0
   11.5863    9.6815   19.4539 C   0  0  0  0  0  0  0  0  0  0  0  0
   12.9648    4.1543   20.9205 C   0  0  0  0  0  0  0  0  0  0  0  0
    8.2089    3.6265   20.8929 C   0  0  0  0  0  0  0  0  0  0  0  0
    7.3827    2.5724   20.5432 C   0  0  0  0  0  0  0  0  0  0  0  0
   11.1529    7.2750   20.8025 C   0  0  0  0  0  0  0  0  0  0  0  0
   10.2573    8.3215   20.9827 C   0  0  0  0  0  0  0  0  0  0  0  0
   11.1606    5.9378   21.2366 N   0  0  0  0  0  0  0  0  0  0  0  0
    9.8932   11.6736   19.0677 O   0  0  0  0  0  0  0  0  0  0  0  0
    6.4470    4.5850   22.2321 C   0  0  0  0  0  0  0  0  0  0  0  0
    8.4619    6.9895   22.2968 C   0  0  0  0  0  0  0  0  0  0  0  0
   12.2747    7.5102   20.0420 C   0  0  0  0  0  0  0  0  0  0  0  0
   14.2544    6.2142   19.4191 C   0  0  0  0  0  0  0  0  0  0  0  0
   13.0695    6.3705   20.0375 N   0  0  0  0  0  0  0  0  0  0  0  0
    9.1913    8.0876   21.8361 N   0  0  0  0  0  0  0  0  0  0  0  0
   10.4739    9.4813   20.2889 C   0  0  0  0  0  0  0  0  0  0  0  0
    7.5551    7.1270   23.1200 O   0  0  0  0  0  0  0  0  0  0  0  0
  1 11  4  0
  1 21  4  0
  2  4  1  0
  2  8  1  0
  2 11  1  0
  3 10  4  0
  3 14  4  0
  4  5  1  0
  4 18  2  0
  6 12  1  0
  6 17  4  0
  6 23  4  0
  7  9  1  0
  7 13  4  0
  7 19  4  0
  9 20  1  0
 10 19  4  0
 11 25  4  0
 13 14  4  0
 15 16  4  0
 15 17  4  0
 15 21  4  0
 16 24  1  0
 16 25  4  0
 20 24  1  0
 20 26  2  0
 21 23  4  0
 22 23  1  0
M  END
$$$$

 Created by Python create_sdf_string function

 26 28  0  0  0  0  0  0  0  0999 V2000
   12.4616    8.6700   19.4180 N   0  0  0  0  0  0  0  0  0  0  0  0
   11.8329   10.8148   18.6769 N   0  0  0  0  0  0  0  0  0  0  0  0
    6.1021    2.5564   21.0678 C   0  0  0  0  0  0  0  0  0  0  0  0
   10.9097   11.8051   18.4804 C   0  0  0  0  0  0  0  0  0  0  0  0
   11.2280   12.9135   17.5669 C   0  0  0  0  0  0  0  0  0  0  0  0
   12.3782    5.4231   20.7777 C   0  0  0  0  0  0  0  0  0  0  0  0
    7.7365    4.6508   21.6987 C   0  0  0  0  0  0  0  0  0  0  0  0
   13.0186   11.0102   18.0020 C   0  0  0  0  0  0  0  0  0  0  0  0
    8.6628    5.7088   21.8871 N   0  0  0  0  0  0  0  0  0  0  0  0
    5.6516    3.5258   21.9140 C   0  0  0  0  0  0  0  0  0  0  0  0
   11.5863    9.6815   19.4539 C   0  0  0  0  0  0  0  0  0  0  0  0
   12.9648    4.1543   20.9205 C   0  0  0  0  0  0  0  0  0  0  0  0
    8.2089    3.6265   20.8929 C   0  0  0  0  0  0  0  0  0  0  0  0
    7.3827    2.5724   20.5432 C   0  0  0  0  0  0  0  0  0  0  0  0
   11.1529    7.2750   20.8025 C   0  0  0  0  0  0  0  0  0  0  0  0
   10.2573    8.3215   20.9827 C   0  0  0  0  0  0  0  0  0  0  0  0
   11.1606    5.9378   21.2366 N   0  0  0  0  0  0  0  0  0  0  0  0
    9.8932   11.6736   19.0677 O   0  0  0  0  0  0  0  0  0  0  0  0
    6.4470    4.5850   22.2321 C   0  0  0  0  0  0  0  0  0  0  0  0
    8.4619    6.9895   22.2968 C   0  0  0  0  0  0  0  0  0  0  0  0
   12.2747    7.5102   20.0420 C   0  0  0  0  0  0  0  0  0  0  0  0
   14.2544    6.2142   19.4191 C   0  0  0  0  0  0  0  0  0  0  0  0
   13.0695    6.3705   20.0375 N   0  0  0  0  0  0  0  0  0  0  0  0
    9.1913    8.0876   21.8361 N   0  0  0  0  0  0  0  0  0  0  0  0
   10.4739    9.4813   20.2889 C   0  0  0  0  0  0  0  0  0  0  0  0
    7.5551    7.1270   23.1200 O   0  0  0  0  0  0  0  0  0  0  0  0
  1 11  4  0
  1 21  4  0
  2  4  1  0
  2  8  1  0
  2 11  1  0
  3 10  4  0
  3 14  4  0
  4  5  1  0
  4 18  2  0
  6 12  1  0
  6 17  4  0
  6 23  4  0
  7  9  1  0
  7 13  4  0
  7 19  4  0
  9 20  1  0
 10 19  4  0
 11 25  4  0
 13 14  4  0
 15 16  4  0
 15 17  4  0
 15 21  4  0
 16 24  1  0
 16 25  4  0
 20 24  1  0
 20 26  2  0
 21 23  4  0
 22 23  1  0
M  END
$$$$

 Created by Python create_sdf_string function

 26 28  0  0  0  0  0  0  0  0999 V2000
   12.4616    8.6700   19.4180 N   0  0  0  0  0  0  0  0  0  0  0  0
   11.8329   10.8148   18.6769 N   0  0  0  0  0  0  0  0  0  0  0  0
    6.1021    2.5564   21.0678 C   0  0  0  0  0  0  0  0  0  0  0  0
   10.9097   11.8051   18.4804 C   0  0  0  0  0  0  0  0  0  0  0  0
   11.2280   12.9135   17.5669 C   0  0  0  0  0  0  0  0  0  0  0  0
   12.3782    5.4231   20.7777 C   0  0  0  0  0  0  0  0  0  0  0  0
    7.7365    4.6508   21.6987 C   0  0  0  0  0  0  0  0  0  0  0  0
   13.0186   11.0102   18.0020 C   0  0  0  0  0  0  0  0  0  0  0  0
    8.6628    5.7088   21.8871 N   0  0  0  0  0  0  0  0  0  0  0  0
    5.6516    3.5258   21.9140 C   0  0  0  0  0  0  0  0  0  0  0  0
   11.5863    9.6815   19.4539 C   0  0  0  0  0  0  0  0  0  0  0  0
   12.9648    4.1543   20.9205 C   0  0  0  0  0  0  0  0  0  0  0  0
    8.2089    3.6265   20.8929 C   0  0  0  0  0  0  0  0  0  0  0  0
    7.3827    2.5724   20.5432 C   0  0  0  0  0  0  0  0  0  0  0  0
   11.1529    7.2750   20.8025 C   0  0  0  0  0  0  0  0  0  0  0  0
   10.2573    8.3215   20.9827 C   0  0  0  0  0  0  0  0  0  0  0  0
   11.1606    5.9378   21.2366 N   0  0  0  0  0  0  0  0  0  0  0  0
    9.8932   11.6736   19.0677 O   0  0  0  0  0  0  0  0  0  0  0  0
    6.4470    4.5850   22.2321 C   0  0  0  0  0  0  0  0  0  0  0  0
    8.4619    6.9895   22.2968 C   0  0  0  0  0  0  0  0  0  0  0  0
   12.2747    7.5102   20.0420 C   0  0  0  0  0  0  0  0  0  0  0  0
   14.2544    6.2142   19.4191 C   0  0  0  0  0  0  0  0  0  0  0  0
   13.0695    6.3705   20.0375 N   0  0  0  0  0  0  0  0  0  0  0  0
    9.1913    8.0876   21.8361 N   0  0  0  0  0  0  0  0  0  0  0  0
   10.4739    9.4813   20.2889 C   0  0  0  0  0  0  0  0  0  0  0  0
    7.5551    7.1270   23.1200 O   0  0  0  0  0  0  0  0  0  0  0  0
  1 11  4  0
  1 21  4  0
  2  4  1  0
  2  8  1  0
  2 11  1  0
  3 10  4  0
  3 14  4  0
  4  5  1  0
  4 18  2  0
  6 12  1  0
  6 17  4  0
  6 23  4  0
  7  9  1  0
  7 13  4  0
  7 19  4  0
  9 20  1  0
 10 19  4  0
 11 25  4  0
 13 14  4  0
 15 16  4  0
 15 17  4  0
 15 21  4  0
 16 24  1  0
 16 25  4  0
 20 24  1  0
 20 26  2  0
 21 23  4  0
 22 23  1  0
M  END
$$$$

 Created by Python create_sdf_string function

 26 28  0  0  0  0  0  0  0  0999 V2000
   12.4616    8.6700   19.4180 N   0  0  0  0  0  0  0  0  0  0  0  0
   11.8329   10.8148   18.6769 N   0  0  0  0  0  0  0  0  0  0  0  0
    6.1021    2.5564   21.0678 C   0  0  0  0  0  0  0  0  0  0  0  0
   10.9097   11.8051   18.4804 C   0  0  0  0  0  0  0  0  0  0  0  0
   11.2280   12.9135   17.5669 C   0  0  0  0  0  0  0  0  0  0  0  0
   12.3782    5.4231   20.7777 C   0  0  0  0  0  0  0  0  0  0  0  0
    7.7365    4.6508   21.6987 C   0  0  0  0  0  0  0  0  0  0  0  0
   13.0186   11.0102   18.0020 C   0  0  0  0  0  0  0  0  0  0  0  0
    8.6628    5.7088   21.8871 N   0  0  0  0  0  0  0  0  0  0  0  0
    5.6516    3.5258   21.9140 C   0  0  0  0  0  0  0  0  0  0  0  0
   11.5863    9.6815   19.4539 C   0  0  0  0  0  0  0  0  0  0  0  0
   12.9648    4.1543   20.9205 C   0  0  0  0  0  0  0  0  0  0  0  0
    8.2089    3.6265   20.8929 C   0  0  0  0  0  0  0  0  0  0  0  0
    7.3827    2.5724   20.5432 C   0  0  0  0  0  0  0  0  0  0  0  0
   11.1529    7.2750   20.8025 C   0  0  0  0  0  0  0  0  0  0  0  0
   10.2573    8.3215   20.9827 C   0  0  0  0  0  0  0  0  0  0  0  0
   11.1606    5.9378   21.2366 N   0  0  0  0  0  0  0  0  0  0  0  0
    9.8932   11.6736   19.0677 O   0  0  0  0  0  0  0  0  0  0  0  0
    6.4470    4.5850   22.2321 C   0  0  0  0  0  0  0  0  0  0  0  0
    8.4619    6.9895   22.2968 C   0  0  0  0  0  0  0  0  0  0  0  0
   12.2747    7.5102   20.0420 C   0  0  0  0  0  0  0  0  0  0  0  0
   14.2544    6.2142   19.4191 C   0  0  0  0  0  0  0  0  0  0  0  0
   13.0695    6.3705   20.0375 N   0  0  0  0  0  0  0  0  0  0  0  0
    9.1913    8.0876   21.8361 N   0  0  0  0  0  0  0  0  0  0  0  0
   10.4739    9.4813   20.2889 C   0  0  0  0  0  0  0  0  0  0  0  0
    7.5551    7.1270   23.1200 O   0  0  0  0  0  0  0  0  0  0  0  0
  1 11  4  0
  1 21  4  0
  2  4  1  0
  2  8  1  0
  2 11  1  0
  3 10  4  0
  3 14  4  0
  4  5  1  0
  4 18  2  0
  6 12  1  0
  6 17  4  0
  6 23  4  0
  7  9  1  0
  7 13  4  0
  7 19  4  0
  9 20  1  0
 10 19  4  0
 11 25  4  0
 13 14  4  0
 15 16  4  0
 15 17  4  0
 15 21  4  0
 16 24  1  0
 16 25  4  0
 20 24  1  0
 20 26  2  0
 21 23  4  0
 22 23  1  0
M  END
$$$$

 Created by Python create_sdf_string function

 26 28  0  0  0  0  0  0  0  0999 V2000
   12.4616    8.6700   19.4180 N   0  0  0  0  0  0  0  0  0  0  0  0
   11.8329   10.8148   18.6769 N   0  0  0  0  0  0  0  0  0  0  0  0
    6.1021    2.5564   21.0678 C   0  0  0  0  0  0  0  0  0  0  0  0
   10.9097   11.8051   18.4804 C   0  0  0  0  0  0  0  0  0  0  0  0
   11.2280   12.9135   17.5669 C   0  0  0  0  0  0  0  0  0  0  0  0
   12.3782    5.4231   20.7777 C   0  0  0  0  0  0  0  0  0  0  0  0
    7.7365    4.6508   21.6987 C   0  0  0  0  0  0  0  0  0  0  0  0
   13.0186   11.0102   18.0020 C   0  0  0  0  0  0  0  0  0  0  0  0
    8.6628    5.7088   21.8871 N   0  0  0  0  0  0  0  0  0  0  0  0
    5.6516    3.5258   21.9140 C   0  0  0  0  0  0  0  0  0  0  0  0
   11.5863    9.6815   19.4539 C   0  0  0  0  0  0  0  0  0  0  0  0
   12.9648    4.1543   20.9205 C   0  0  0  0  0  0  0  0  0  0  0  0
    8.2089    3.6265   20.8929 C   0  0  0  0  0  0  0  0  0  0  0  0
    7.3827    2.5724   20.5432 C   0  0  0  0  0  0  0  0  0  0  0  0
   11.1529    7.2750   20.8025 C   0  0  0  0  0  0  0  0  0  0  0  0
   10.2573    8.3215   20.9827 C   0  0  0  0  0  0  0  0  0  0  0  0
   11.1606    5.9378   21.2366 N   0  0  0  0  0  0  0  0  0  0  0  0
    9.8932   11.6736   19.0677 O   0  0  0  0  0  0  0  0  0  0  0  0
    6.4470    4.5850   22.2321 C   0  0  0  0  0  0  0  0  0  0  0  0
    8.4619    6.9895   22.2968 C   0  0  0  0  0  0  0  0  0  0  0  0
   12.2747    7.5102   20.0420 C   0  0  0  0  0  0  0  0  0  0  0  0
   14.2544    6.2142   19.4191 C   0  0  0  0  0  0  0  0  0  0  0  0
   13.0695    6.3705   20.0375 N   0  0  0  0  0  0  0  0  0  0  0  0
    9.1913    8.0876   21.8361 N   0  0  0  0  0  0  0  0  0  0  0  0
   10.4739    9.4813   20.2889 C   0  0  0  0  0  0  0  0  0  0  0  0
    7.5551    7.1270   23.1200 O   0  0  0  0  0  0  0  0  0  0  0  0
  1 11  4  0
  1 21  4  0
  2  4  1  0
  2  8  1  0
  2 11  1  0
  3 10  4  0
  3 14  4  0
  4  5  1  0
  4 18  2  0
  6 12  1  0
  6 17  4  0
  6 23  4  0
  7  9  1  0
  7 13  4  0
  7 19  4  0
  9 20  1  0
 10 19  4  0
 11 25  4  0
 13 14  4  0
 15 16  4  0
 15 17  4  0
 15 21  4  0
 16 24  1  0
 16 25  4  0
 20 24  1  0
 20 26  2  0
 21 23  4  0
 22 23  1  0
M  END
$$$$

 Created by Python create_sdf_string function

 26 28  0  0  0  0  0  0  0  0999 V2000
   12.4616    8.6700   19.4180 N   0  0  0  0  0  0  0  0  0  0  0  0
   11.8329   10.8148   18.6769 N   0  0  0  0  0  0  0  0  0  0  0  0
    6.1021    2.5564   21.0678 C   0  0  0  0  0  0  0  0  0  0  0  0
   10.9097   11.8051   18.4804 C   0  0  0  0  0  0  0  0  0  0  0  0
   11.2280   12.9135   17.5669 C   0  0  0  0  0  0  0  0  0  0  0  0
   12.3782    5.4231   20.7777 C   0  0  0  0  0  0  0  0  0  0  0  0
    7.7365    4.6508   21.6987 C   0  0  0  0  0  0  0  0  0  0  0  0
   13.0186   11.0102   18.0020 C   0  0  0  0  0  0  0  0  0  0  0  0
    8.6628    5.7088   21.8871 N   0  0  0  0  0  0  0  0  0  0  0  0
    5.6516    3.5258   21.9140 C   0  0  0  0  0  0  0  0  0  0  0  0
   11.5863    9.6815   19.4539 C   0  0  0  0  0  0  0  0  0  0  0  0
   12.9648    4.1543   20.9205 C   0  0  0  0  0  0  0  0  0  0  0  0
    8.2089    3.6265   20.8929 C   0  0  0  0  0  0  0  0  0  0  0  0
    7.3827    2.5724   20.5432 C   0  0  0  0  0  0  0  0  0  0  0  0
   11.1529    7.2750   20.8025 C   0  0  0  0  0  0  0  0  0  0  0  0
   10.2573    8.3215   20.9827 C   0  0  0  0  0  0  0  0  0  0  0  0
   11.1606    5.9378   21.2366 N   0  0  0  0  0  0  0  0  0  0  0  0
    9.8932   11.6736   19.0677 O   0  0  0  0  0  0  0  0  0  0  0  0
    6.4470    4.5850   22.2321 C   0  0  0  0  0  0  0  0  0  0  0  0
    8.4619    6.9895   22.2968 C   0  0  0  0  0  0  0  0  0  0  0  0
   12.2747    7.5102   20.0420 C   0  0  0  0  0  0  0  0  0  0  0  0
   14.2544    6.2142   19.4191 C   0  0  0  0  0  0  0  0  0  0  0  0
   13.0695    6.3705   20.0375 N   0  0  0  0  0  0  0  0  0  0  0  0
    9.1913    8.0876   21.8361 N   0  0  0  0  0  0  0  0  0  0  0  0
   10.4739    9.4813   20.2889 C   0  0  0  0  0  0  0  0  0  0  0  0
    7.5551    7.1270   23.1200 O   0  0  0  0  0  0  0  0  0  0  0  0
  1 11  4  0
  1 21  4  0
  2  4  1  0
  2  8  1  0
  2 11  1  0
  3 10  4  0
  3 14  4  0
  4  5  1  0
  4 18  2  0
  6 12  1  0
  6 17  4  0
  6 23  4  0
  7  9  1  0
  7 13  4  0
  7 19  4  0
  9 20  1  0
 10 19  4  0
 11 25  4  0
 13 14  4  0
 15 16  4  0
 15 17  4  0
 15 21  4  0
 16 24  1  0
 16 25  4  0
 20 24  1  0
 20 26  2  0
 21 23  4  0
 22 23  1  0
M  END
$$$$

 Created by Python create_sdf_string function

 26 28  0  0  0  0  0  0  0  0999 V2000
   12.4616    8.6700   19.4180 N   0  0  0  0  0  0  0  0  0  0  0  0
   11.8329   10.8148   18.6769 N   0  0  0  0  0  0  0  0  0  0  0  0
    6.1021    2.5564   21.0678 C   0  0  0  0  0  0  0  0  0  0  0  0
   10.9097   11.8051   18.4804 C   0  0  0  0  0  0  0  0  0  0  0  0
   11.2280   12.9135   17.5669 C   0  0  0  0  0  0  0  0  0  0  0  0
   12.3782    5.4231   20.7777 C   0  0  0  0  0  0  0  0  0  0  0  0
    7.7365    4.6508   21.6987 C   0  0  0  0  0  0  0  0  0  0  0  0
   13.0186   11.0102   18.0020 C   0  0  0  0  0  0  0  0  0  0  0  0
    8.6628    5.7088   21.8871 N   0  0  0  0  0  0  0  0  0  0  0  0
    5.6516    3.5258   21.9140 C   0  0  0  0  0  0  0  0  0  0  0  0
   11.5863    9.6815   19.4539 C   0  0  0  0  0  0  0  0  0  0  0  0
   12.9648    4.1543   20.9205 C   0  0  0  0  0  0  0  0  0  0  0  0
    8.2089    3.6265   20.8929 C   0  0  0  0  0  0  0  0  0  0  0  0
    7.3827    2.5724   20.5432 C   0  0  0  0  0  0  0  0  0  0  0  0
   11.1529    7.2750   20.8025 C   0  0  0  0  0  0  0  0  0  0  0  0
   10.2573    8.3215   20.9827 C   0  0  0  0  0  0  0  0  0  0  0  0
   11.1606    5.9378   21.2366 N   0  0  0  0  0  0  0  0  0  0  0  0
    9.8932   11.6736   19.0677 O   0  0  0  0  0  0  0  0  0  0  0  0
    6.4470    4.5850   22.2321 C   0  0  0  0  0  0  0  0  0  0  0  0
    8.4619    6.9895   22.2968 C   0  0  0  0  0  0  0  0  0  0  0  0
   12.2747    7.5102   20.0420 C   0  0  0  0  0  0  0  0  0  0  0  0
   14.2544    6.2142   19.4191 C   0  0  0  0  0  0  0  0  0  0  0  0
   13.0695    6.3705   20.0375 N   0  0  0  0  0  0  0  0  0  0  0  0
    9.1913    8.0876   21.8361 N   0  0  0  0  0  0  0  0  0  0  0  0
   10.4739    9.4813   20.2889 C   0  0  0  0  0  0  0  0  0  0  0  0
    7.5551    7.1270   23.1200 O   0  0  0  0  0  0  0  0  0  0  0  0
  1 11  4  0
  1 21  4  0
  2  4  1  0
  2  8  1  0
  2 11  1  0
  3 10  4  0
  3 14  4  0
  4  5  1  0
  4 18  2  0
  6 12  1  0
  6 17  4  0
  6 23  4  0
  7  9  1  0
  7 13  4  0
  7 19  4  0
  9 20  1  0
 10 19  4  0
 11 25  4  0
 13 14  4  0
 15 16  4  0
 15 17  4  0
 15 21  4  0
 16 24  1  0
 16 25  4  0
 20 24  1  0
 20 26  2  0
 21 23  4  0
 22 23  1  0
M  END
$$$$

 Created by Python create_sdf_string function

 26 28  0  0  0  0  0  0  0  0999 V2000
   12.4616    8.6700   19.4180 N   0  0  0  0  0  0  0  0  0  0  0  0
   11.8329   10.8148   18.6769 N   0  0  0  0  0  0  0  0  0  0  0  0
    6.1021    2.5564   21.0678 C   0  0  0  0  0  0  0  0  0  0  0  0
   10.9097   11.8051   18.4804 C   0  0  0  0  0  0  0  0  0  0  0  0
   11.2280   12.9135   17.5669 C   0  0  0  0  0  0  0  0  0  0  0  0
   12.3782    5.4231   20.7777 C   0  0  0  0  0  0  0  0  0  0  0  0
    7.7365    4.6508   21.6987 C   0  0  0  0  0  0  0  0  0  0  0  0
   13.0186   11.0102   18.0020 C   0  0  0  0  0  0  0  0  0  0  0  0
    8.6628    5.7088   21.8871 N   0  0  0  0  0  0  0  0  0  0  0  0
    5.6516    3.5258   21.9140 C   0  0  0  0  0  0  0  0  0  0  0  0
   11.5863    9.6815   19.4539 C   0  0  0  0  0  0  0  0  0  0  0  0
   12.9648    4.1543   20.9205 C   0  0  0  0  0  0  0  0  0  0  0  0
    8.2089    3.6265   20.8929 C   0  0  0  0  0  0  0  0  0  0  0  0
    7.3827    2.5724   20.5432 C   0  0  0  0  0  0  0  0  0  0  0  0
   11.1529    7.2750   20.8025 C   0  0  0  0  0  0  0  0  0  0  0  0
   10.2573    8.3215   20.9827 C   0  0  0  0  0  0  0  0  0  0  0  0
   11.1606    5.9378   21.2366 N   0  0  0  0  0  0  0  0  0  0  0  0
    9.8932   11.6736   19.0677 O   0  0  0  0  0  0  0  0  0  0  0  0
    6.4470    4.5850   22.2321 C   0  0  0  0  0  0  0  0  0  0  0  0
    8.4619    6.9895   22.2968 C   0  0  0  0  0  0  0  0  0  0  0  0
   12.2747    7.5102   20.0420 C   0  0  0  0  0  0  0  0  0  0  0  0
   14.2544    6.2142   19.4191 C   0  0  0  0  0  0  0  0  0  0  0  0
   13.0695    6.3705   20.0375 N   0  0  0  0  0  0  0  0  0  0  0  0
    9.1913    8.0876   21.8361 N   0  0  0  0  0  0  0  0  0  0  0  0
   10.4739    9.4813   20.2889 C   0  0  0  0  0  0  0  0  0  0  0  0
    7.5551    7.1270   23.1200 O   0  0  0  0  0  0  0  0  0  0  0  0
  1 11  4  0
  1 21  4  0
  2  4  1  0
  2  8  1  0
  2 11  1  0
  3 10  4  0
  3 14  4  0
  4  5  1  0
  4 18  2  0
  6 12  1  0
  6 17  4  0
  6 23  4  0
  7  9  1  0
  7 13  4  0
  7 19  4  0
  9 20  1  0
 10 19  4  0
 11 25  4  0
 13 14  4  0
 15 16  4  0
 15 17  4  0
 15 21  4  0
 16 24  1  0
 16 25  4  0
 20 24  1  0
 20 26  2  0
 21 23  4  0
 22 23  1  0
M  END
$$$$

 Created by Python create_sdf_string function

 26 28  0  0  0  0  0  0  0  0999 V2000
   12.4616    8.6700   19.4180 N   0  0  0  0  0  0  0  0  0  0  0  0
   11.8329   10.8148   18.6769 N   0  0  0  0  0  0  0  0  0  0  0  0
    6.1021    2.5564   21.0678 C   0  0  0  0  0  0  0  0  0  0  0  0
   10.9097   11.8051   18.4804 C   0  0  0  0  0  0  0  0  0  0  0  0
   11.2280   12.9135   17.5669 C   0  0  0  0  0  0  0  0  0  0  0  0
   12.3782    5.4231   20.7777 C   0  0  0  0  0  0  0  0  0  0  0  0
    7.7365    4.6508   21.6987 C   0  0  0  0  0  0  0  0  0  0  0  0
   13.0186   11.0102   18.0020 C   0  0  0  0  0  0  0  0  0  0  0  0
    8.6628    5.7088   21.8871 N   0  0  0  0  0  0  0  0  0  0  0  0
    5.6516    3.5258   21.9140 C   0  0  0  0  0  0  0  0  0  0  0  0
   11.5863    9.6815   19.4539 C   0  0  0  0  0  0  0  0  0  0  0  0
   12.9648    4.1543   20.9205 C   0  0  0  0  0  0  0  0  0  0  0  0
    8.2089    3.6265   20.8929 C   0  0  0  0  0  0  0  0  0  0  0  0
    7.3827    2.5724   20.5432 C   0  0  0  0  0  0  0  0  0  0  0  0
   11.1529    7.2750   20.8025 C   0  0  0  0  0  0  0  0  0  0  0  0
   10.2573    8.3215   20.9827 C   0  0  0  0  0  0  0  0  0  0  0  0
   11.1606    5.9378   21.2366 N   0  0  0  0  0  0  0  0  0  0  0  0
    9.8932   11.6736   19.0677 O   0  0  0  0  0  0  0  0  0  0  0  0
    6.4470    4.5850   22.2321 C   0  0  0  0  0  0  0  0  0  0  0  0
    8.4619    6.9895   22.2968 C   0  0  0  0  0  0  0  0  0  0  0  0
   12.2747    7.5102   20.0420 C   0  0  0  0  0  0  0  0  0  0  0  0
   14.2544    6.2142   19.4191 C   0  0  0  0  0  0  0  0  0  0  0  0
   13.0695    6.3705   20.0375 N   0  0  0  0  0  0  0  0  0  0  0  0
    9.1913    8.0876   21.8361 N   0  0  0  0  0  0  0  0  0  0  0  0
   10.4739    9.4813   20.2889 C   0  0  0  0  0  0  0  0  0  0  0  0
    7.5551    7.1270   23.1200 O   0  0  0  0  0  0  0  0  0  0  0  0
  1 11  4  0
  1 21  4  0
  2  4  1  0
  2  8  1  0
  2 11  1  0
  3 10  4  0
  3 14  4  0
  4  5  1  0
  4 18  2  0
  6 12  1  0
  6 17  4  0
  6 23  4  0
  7  9  1  0
  7 13  4  0
  7 19  4  0
  9 20  1  0
 10 19  4  0
 11 25  4  0
 13 14  4  0
 15 16  4  0
 15 17  4  0
 15 21  4  0
 16 24  1  0
 16 25  4  0
 20 24  1  0
 20 26  2  0
 21 23  4  0
 22 23  1  0
M  END
$$$$

 Created by Python create_sdf_string function

 26 28  0  0  0  0  0  0  0  0999 V2000
   12.4616    8.6700   19.4180 N   0  0  0  0  0  0  0  0  0  0  0  0
   11.8329   10.8148   18.6769 N   0  0  0  0  0  0  0  0  0  0  0  0
    6.1021    2.5564   21.0678 C   0  0  0  0  0  0  0  0  0  0  0  0
   10.9097   11.8051   18.4804 C   0  0  0  0  0  0  0  0  0  0  0  0
   11.2280   12.9135   17.5669 C   0  0  0  0  0  0  0  0  0  0  0  0
   12.3782    5.4231   20.7777 C   0  0  0  0  0  0  0  0  0  0  0  0
    7.7365    4.6508   21.6987 C   0  0  0  0  0  0  0  0  0  0  0  0
   13.0186   11.0102   18.0020 C   0  0  0  0  0  0  0  0  0  0  0  0
    8.6628    5.7088   21.8871 N   0  0  0  0  0  0  0  0  0  0  0  0
    5.6516    3.5258   21.9140 C   0  0  0  0  0  0  0  0  0  0  0  0
   11.5863    9.6815   19.4539 C   0  0  0  0  0  0  0  0  0  0  0  0
   12.9648    4.1543   20.9205 C   0  0  0  0  0  0  0  0  0  0  0  0
    8.2089    3.6265   20.8929 C   0  0  0  0  0  0  0  0  0  0  0  0
    7.3827    2.5724   20.5432 C   0  0  0  0  0  0  0  0  0  0  0  0
   11.1529    7.2750   20.8025 C   0  0  0  0  0  0  0  0  0  0  0  0
   10.2573    8.3215   20.9827 C   0  0  0  0  0  0  0  0  0  0  0  0
   11.1606    5.9378   21.2366 N   0  0  0  0  0  0  0  0  0  0  0  0
    9.8932   11.6736   19.0677 O   0  0  0  0  0  0  0  0  0  0  0  0
    6.4470    4.5850   22.2321 C   0  0  0  0  0  0  0  0  0  0  0  0
    8.4619    6.9895   22.2968 C   0  0  0  0  0  0  0  0  0  0  0  0
   12.2747    7.5102   20.0420 C   0  0  0  0  0  0  0  0  0  0  0  0
   14.2544    6.2142   19.4191 C   0  0  0  0  0  0  0  0  0  0  0  0
   13.0695    6.3705   20.0375 N   0  0  0  0  0  0  0  0  0  0  0  0
    9.1913    8.0876   21.8361 N   0  0  0  0  0  0  0  0  0  0  0  0
   10.4739    9.4813   20.2889 C   0  0  0  0  0  0  0  0  0  0  0  0
    7.5551    7.1270   23.1200 O   0  0  0  0  0  0  0  0  0  0  0  0
  1 11  4  0
  1 21  4  0
  2  4  1  0
  2  8  1  0
  2 11  1  0
  3 10  4  0
  3 14  4  0
  4  5  1  0
  4 18  2  0
  6 12  1  0
  6 17  4  0
  6 23  4  0
  7  9  1  0
  7 13  4  0
  7 19  4  0
  9 20  1  0
 10 19  4  0
 11 25  4  0
 13 14  4  0
 15 16  4  0
 15 17  4  0
 15 21  4  0
 16 24  1  0
 16 25  4  0
 20 24  1  0
 20 26  2  0
 21 23  4  0
 22 23  1  0
M  END
$$$$

 Created by Python create_sdf_string function

 26 28  0  0  0  0  0  0  0  0999 V2000
   12.4616    8.6700   19.4180 N   0  0  0  0  0  0  0  0  0  0  0  0
   11.8329   10.8148   18.6769 N   0  0  0  0  0  0  0  0  0  0  0  0
    6.1021    2.5564   21.0678 C   0  0  0  0  0  0  0  0  0  0  0  0
   10.9097   11.8051   18.4804 C   0  0  0  0  0  0  0  0  0  0  0  0
   11.2280   12.9135   17.5669 C   0  0  0  0  0  0  0  0  0  0  0  0
   12.3782    5.4231   20.7777 C   0  0  0  0  0  0  0  0  0  0  0  0
    7.7365    4.6508   21.6987 C   0  0  0  0  0  0  0  0  0  0  0  0
   13.0186   11.0102   18.0020 C   0  0  0  0  0  0  0  0  0  0  0  0
    8.6628    5.7088   21.8871 N   0  0  0  0  0  0  0  0  0  0  0  0
    5.6516    3.5258   21.9140 C   0  0  0  0  0  0  0  0  0  0  0  0
   11.5863    9.6815   19.4539 C   0  0  0  0  0  0  0  0  0  0  0  0
   12.9648    4.1543   20.9205 C   0  0  0  0  0  0  0  0  0  0  0  0
    8.2089    3.6265   20.8929 C   0  0  0  0  0  0  0  0  0  0  0  0
    7.3827    2.5724   20.5432 C   0  0  0  0  0  0  0  0  0  0  0  0
   11.1529    7.2750   20.8025 C   0  0  0  0  0  0  0  0  0  0  0  0
   10.2573    8.3215   20.9827 C   0  0  0  0  0  0  0  0  0  0  0  0
   11.1606    5.9378   21.2366 N   0  0  0  0  0  0  0  0  0  0  0  0
    9.8932   11.6736   19.0677 O   0  0  0  0  0  0  0  0  0  0  0  0
    6.4470    4.5850   22.2321 C   0  0  0  0  0  0  0  0  0  0  0  0
    8.4619    6.9895   22.2968 C   0  0  0  0  0  0  0  0  0  0  0  0
   12.2747    7.5102   20.0420 C   0  0  0  0  0  0  0  0  0  0  0  0
   14.2544    6.2142   19.4191 C   0  0  0  0  0  0  0  0  0  0  0  0
   13.0695    6.3705   20.0375 N   0  0  0  0  0  0  0  0  0  0  0  0
    9.1913    8.0876   21.8361 N   0  0  0  0  0  0  0  0  0  0  0  0
   10.4739    9.4813   20.2889 C   0  0  0  0  0  0  0  0  0  0  0  0
    7.5551    7.1270   23.1200 O   0  0  0  0  0  0  0  0  0  0  0  0
  1 11  4  0
  1 21  4  0
  2  4  1  0
  2  8  1  0
  2 11  1  0
  3 10  4  0
  3 14  4  0
  4  5  1  0
  4 18  2  0
  6 12  1  0
  6 17  4  0
  6 23  4  0
  7  9  1  0
  7 13  4  0
  7 19  4  0
  9 20  1  0
 10 19  4  0
 11 25  4  0
 13 14  4  0
 15 16  4  0
 15 17  4  0
 15 21  4  0
 16 24  1  0
 16 25  4  0
 20 24  1  0
 20 26  2  0
 21 23  4  0
 22 23  1  0
M  END
$$$$

 Created by Python create_sdf_string function

 26 28  0  0  0  0  0  0  0  0999 V2000
   12.4616    8.6700   19.4180 N   0  0  0  0  0  0  0  0  0  0  0  0
   11.8329   10.8148   18.6769 N   0  0  0  0  0  0  0  0  0  0  0  0
    6.1021    2.5564   21.0678 C   0  0  0  0  0  0  0  0  0  0  0  0
   10.9097   11.8051   18.4804 C   0  0  0  0  0  0  0  0  0  0  0  0
   11.2280   12.9135   17.5669 C   0  0  0  0  0  0  0  0  0  0  0  0
   12.3782    5.4231   20.7777 C   0  0  0  0  0  0  0  0  0  0  0  0
    7.7365    4.6508   21.6987 C   0  0  0  0  0  0  0  0  0  0  0  0
   13.0186   11.0102   18.0020 C   0  0  0  0  0  0  0  0  0  0  0  0
    8.6628    5.7088   21.8871 N   0  0  0  0  0  0  0  0  0  0  0  0
    5.6516    3.5258   21.9140 C   0  0  0  0  0  0  0  0  0  0  0  0
   11.5863    9.6815   19.4539 C   0  0  0  0  0  0  0  0  0  0  0  0
   12.9648    4.1543   20.9205 C   0  0  0  0  0  0  0  0  0  0  0  0
    8.2089    3.6265   20.8929 C   0  0  0  0  0  0  0  0  0  0  0  0
    7.3827    2.5724   20.5432 C   0  0  0  0  0  0  0  0  0  0  0  0
   11.1529    7.2750   20.8025 C   0  0  0  0  0  0  0  0  0  0  0  0
   10.2573    8.3215   20.9827 C   0  0  0  0  0  0  0  0  0  0  0  0
   11.1606    5.9378   21.2366 N   0  0  0  0  0  0  0  0  0  0  0  0
    9.8932   11.6736   19.0677 O   0  0  0  0  0  0  0  0  0  0  0  0
    6.4470    4.5850   22.2321 C   0  0  0  0  0  0  0  0  0  0  0  0
    8.4619    6.9895   22.2968 C   0  0  0  0  0  0  0  0  0  0  0  0
   12.2747    7.5102   20.0420 C   0  0  0  0  0  0  0  0  0  0  0  0
   14.2544    6.2142   19.4191 C   0  0  0  0  0  0  0  0  0  0  0  0
   13.0695    6.3705   20.0375 N   0  0  0  0  0  0  0  0  0  0  0  0
    9.1913    8.0876   21.8361 N   0  0  0  0  0  0  0  0  0  0  0  0
   10.4739    9.4813   20.2889 C   0  0  0  0  0  0  0  0  0  0  0  0
    7.5551    7.1270   23.1200 O   0  0  0  0  0  0  0  0  0  0  0  0
  1 11  4  0
  1 21  4  0
  2  4  1  0
  2  8  1  0
  2 11  1  0
  3 10  4  0
  3 14  4  0
  4  5  1  0
  4 18  2  0
  6 12  1  0
  6 17  4  0
  6 23  4  0
  7  9  1  0
  7 13  4  0
  7 19  4  0
  9 20  1  0
 10 19  4  0
 11 25  4  0
 13 14  4  0
 15 16  4  0
 15 17  4  0
 15 21  4  0
 16 24  1  0
 16 25  4  0
 20 24  1  0
 20 26  2  0
 21 23  4  0
 22 23  1  0
M  END
$$$$

 Created by Python create_sdf_string function

 26 28  0  0  0  0  0  0  0  0999 V2000
   12.4616    8.6700   19.4180 N   0  0  0  0  0  0  0  0  0  0  0  0
   11.8329   10.8148   18.6769 N   0  0  0  0  0  0  0  0  0  0  0  0
    6.1021    2.5564   21.0678 C   0  0  0  0  0  0  0  0  0  0  0  0
   10.9097   11.8051   18.4804 C   0  0  0  0  0  0  0  0  0  0  0  0
   11.2280   12.9135   17.5669 C   0  0  0  0  0  0  0  0  0  0  0  0
   12.3782    5.4231   20.7777 C   0  0  0  0  0  0  0  0  0  0  0  0
    7.7365    4.6508   21.6987 C   0  0  0  0  0  0  0  0  0  0  0  0
   13.0186   11.0102   18.0020 C   0  0  0  0  0  0  0  0  0  0  0  0
    8.6628    5.7088   21.8871 N   0  0  0  0  0  0  0  0  0  0  0  0
    5.6516    3.5258   21.9140 C   0  0  0  0  0  0  0  0  0  0  0  0
   11.5863    9.6815   19.4539 C   0  0  0  0  0  0  0  0  0  0  0  0
   12.9648    4.1543   20.9205 C   0  0  0  0  0  0  0  0  0  0  0  0
    8.2089    3.6265   20.8929 C   0  0  0  0  0  0  0  0  0  0  0  0
    7.3827    2.5724   20.5432 C   0  0  0  0  0  0  0  0  0  0  0  0
   11.1529    7.2750   20.8025 C   0  0  0  0  0  0  0  0  0  0  0  0
   10.2573    8.3215   20.9827 C   0  0  0  0  0  0  0  0  0  0  0  0
   11.1606    5.9378   21.2366 N   0  0  0  0  0  0  0  0  0  0  0  0
    9.8932   11.6736   19.0677 O   0  0  0  0  0  0  0  0  0  0  0  0
    6.4470    4.5850   22.2321 C   0  0  0  0  0  0  0  0  0  0  0  0
    8.4619    6.9895   22.2968 C   0  0  0  0  0  0  0  0  0  0  0  0
   12.2747    7.5102   20.0420 C   0  0  0  0  0  0  0  0  0  0  0  0
   14.2544    6.2142   19.4191 C   0  0  0  0  0  0  0  0  0  0  0  0
   13.0695    6.3705   20.0375 N   0  0  0  0  0  0  0  0  0  0  0  0
    9.1913    8.0876   21.8361 N   0  0  0  0  0  0  0  0  0  0  0  0
   10.4739    9.4813   20.2889 C   0  0  0  0  0  0  0  0  0  0  0  0
    7.5551    7.1270   23.1200 O   0  0  0  0  0  0  0  0  0  0  0  0
  1 11  4  0
  1 21  4  0
  2  4  1  0
  2  8  1  0
  2 11  1  0
  3 10  4  0
  3 14  4  0
  4  5  1  0
  4 18  2  0
  6 12  1  0
  6 17  4  0
  6 23  4  0
  7  9  1  0
  7 13  4  0
  7 19  4  0
  9 20  1  0
 10 19  4  0
 11 25  4  0
 13 14  4  0
 15 16  4  0
 15 17  4  0
 15 21  4  0
 16 24  1  0
 16 25  4  0
 20 24  1  0
 20 26  2  0
 21 23  4  0
 22 23  1  0
M  END
$$$$

 Created by Python create_sdf_string function

 26 28  0  0  0  0  0  0  0  0999 V2000
   12.4616    8.6700   19.4180 N   0  0  0  0  0  0  0  0  0  0  0  0
   11.8329   10.8148   18.6769 N   0  0  0  0  0  0  0  0  0  0  0  0
    6.1021    2.5564   21.0678 C   0  0  0  0  0  0  0  0  0  0  0  0
   10.9097   11.8051   18.4804 C   0  0  0  0  0  0  0  0  0  0  0  0
   11.2280   12.9135   17.5669 C   0  0  0  0  0  0  0  0  0  0  0  0
   12.3782    5.4231   20.7777 C   0  0  0  0  0  0  0  0  0  0  0  0
    7.7365    4.6508   21.6987 C   0  0  0  0  0  0  0  0  0  0  0  0
   13.0186   11.0102   18.0020 C   0  0  0  0  0  0  0  0  0  0  0  0
    8.6628    5.7088   21.8871 N   0  0  0  0  0  0  0  0  0  0  0  0
    5.6516    3.5258   21.9140 C   0  0  0  0  0  0  0  0  0  0  0  0
   11.5863    9.6815   19.4539 C   0  0  0  0  0  0  0  0  0  0  0  0
   12.9648    4.1543   20.9205 C   0  0  0  0  0  0  0  0  0  0  0  0
    8.2089    3.6265   20.8929 C   0  0  0  0  0  0  0  0  0  0  0  0
    7.3827    2.5724   20.5432 C   0  0  0  0  0  0  0  0  0  0  0  0
   11.1529    7.2750   20.8025 C   0  0  0  0  0  0  0  0  0  0  0  0
   10.2573    8.3215   20.9827 C   0  0  0  0  0  0  0  0  0  0  0  0
   11.1606    5.9378   21.2366 N   0  0  0  0  0  0  0  0  0  0  0  0
    9.8932   11.6736   19.0677 O   0  0  0  0  0  0  0  0  0  0  0  0
    6.4470    4.5850   22.2321 C   0  0  0  0  0  0  0  0  0  0  0  0
    8.4619    6.9895   22.2968 C   0  0  0  0  0  0  0  0  0  0  0  0
   12.2747    7.5102   20.0420 C   0  0  0  0  0  0  0  0  0  0  0  0
   14.2544    6.2142   19.4191 C   0  0  0  0  0  0  0  0  0  0  0  0
   13.0695    6.3705   20.0375 N   0  0  0  0  0  0  0  0  0  0  0  0
    9.1913    8.0876   21.8361 N   0  0  0  0  0  0  0  0  0  0  0  0
   10.4739    9.4813   20.2889 C   0  0  0  0  0  0  0  0  0  0  0  0
    7.5551    7.1270   23.1200 O   0  0  0  0  0  0  0  0  0  0  0  0
  1 11  4  0
  1 21  4  0
  2  4  1  0
  2  8  1  0
  2 11  1  0
  3 10  4  0
  3 14  4  0
  4  5  1  0
  4 18  2  0
  6 12  1  0
  6 17  4  0
  6 23  4  0
  7  9  1  0
  7 13  4  0
  7 19  4  0
  9 20  1  0
 10 19  4  0
 11 25  4  0
 13 14  4  0
 15 16  4  0
 15 17  4  0
 15 21  4  0
 16 24  1  0
 16 25  4  0
 20 24  1  0
 20 26  2  0
 21 23  4  0
 22 23  1  0
M  END
$$$$

 Created by Python create_sdf_string function

 26 28  0  0  0  0  0  0  0  0999 V2000
   12.4616    8.6700   19.4180 N   0  0  0  0  0  0  0  0  0  0  0  0
   11.8329   10.8148   18.6769 N   0  0  0  0  0  0  0  0  0  0  0  0
    6.1021    2.5564   21.0678 C   0  0  0  0  0  0  0  0  0  0  0  0
   10.9097   11.8051   18.4804 C   0  0  0  0  0  0  0  0  0  0  0  0
   11.2280   12.9135   17.5669 C   0  0  0  0  0  0  0  0  0  0  0  0
   12.3782    5.4231   20.7777 C   0  0  0  0  0  0  0  0  0  0  0  0
    7.7365    4.6508   21.6987 C   0  0  0  0  0  0  0  0  0  0  0  0
   13.0186   11.0102   18.0020 C   0  0  0  0  0  0  0  0  0  0  0  0
    8.6628    5.7088   21.8871 N   0  0  0  0  0  0  0  0  0  0  0  0
    5.6516    3.5258   21.9140 C   0  0  0  0  0  0  0  0  0  0  0  0
   11.5863    9.6815   19.4539 C   0  0  0  0  0  0  0  0  0  0  0  0
   12.9648    4.1543   20.9205 C   0  0  0  0  0  0  0  0  0  0  0  0
    8.2089    3.6265   20.8929 C   0  0  0  0  0  0  0  0  0  0  0  0
    7.3827    2.5724   20.5432 C   0  0  0  0  0  0  0  0  0  0  0  0
   11.1529    7.2750   20.8025 C   0  0  0  0  0  0  0  0  0  0  0  0
   10.2573    8.3215   20.9827 C   0  0  0  0  0  0  0  0  0  0  0  0
   11.1606    5.9378   21.2366 N   0  0  0  0  0  0  0  0  0  0  0  0
    9.8932   11.6736   19.0677 O   0  0  0  0  0  0  0  0  0  0  0  0
    6.4470    4.5850   22.2321 C   0  0  0  0  0  0  0  0  0  0  0  0
    8.4619    6.9895   22.2968 C   0  0  0  0  0  0  0  0  0  0  0  0
   12.2747    7.5102   20.0420 C   0  0  0  0  0  0  0  0  0  0  0  0
   14.2544    6.2142   19.4191 C   0  0  0  0  0  0  0  0  0  0  0  0
   13.0695    6.3705   20.0375 N   0  0  0  0  0  0  0  0  0  0  0  0
    9.1913    8.0876   21.8361 N   0  0  0  0  0  0  0  0  0  0  0  0
   10.4739    9.4813   20.2889 C   0  0  0  0  0  0  0  0  0  0  0  0
    7.5551    7.1270   23.1200 O   0  0  0  0  0  0  0  0  0  0  0  0
  1 11  4  0
  1 21  4  0
  2  4  1  0
  2  8  1  0
  2 11  1  0
  3 10  4  0
  3 14  4  0
  4  5  1  0
  4 18  2  0
  6 12  1  0
  6 17  4  0
  6 23  4  0
  7  9  1  0
  7 13  4  0
  7 19  4  0
  9 20  1  0
 10 19  4  0
 11 25  4  0
 13 14  4  0
 15 16  4  0
 15 17  4  0
 15 21  4  0
 16 24  1  0
 16 25  4  0
 20 24  1  0
 20 26  2  0
 21 23  4  0
 22 23  1  0
M  END
$$$$

 Created by Python create_sdf_string function

 26 28  0  0  0  0  0  0  0  0999 V2000
   12.4616    8.6700   19.4180 N   0  0  0  0  0  0  0  0  0  0  0  0
   11.8329   10.8148   18.6769 N   0  0  0  0  0  0  0  0  0  0  0  0
    6.1021    2.5564   21.0678 C   0  0  0  0  0  0  0  0  0  0  0  0
   10.9097   11.8051   18.4804 C   0  0  0  0  0  0  0  0  0  0  0  0
   11.2280   12.9135   17.5669 C   0  0  0  0  0  0  0  0  0  0  0  0
   12.3782    5.4231   20.7777 C   0  0  0  0  0  0  0  0  0  0  0  0
    7.7365    4.6508   21.6987 C   0  0  0  0  0  0  0  0  0  0  0  0
   13.0186   11.0102   18.0020 C   0  0  0  0  0  0  0  0  0  0  0  0
    8.6628    5.7088   21.8871 N   0  0  0  0  0  0  0  0  0  0  0  0
    5.6516    3.5258   21.9140 C   0  0  0  0  0  0  0  0  0  0  0  0
   11.5863    9.6815   19.4539 C   0  0  0  0  0  0  0  0  0  0  0  0
   12.9648    4.1543   20.9205 C   0  0  0  0  0  0  0  0  0  0  0  0
    8.2089    3.6265   20.8929 C   0  0  0  0  0  0  0  0  0  0  0  0
    7.3827    2.5724   20.5432 C   0  0  0  0  0  0  0  0  0  0  0  0
   11.1529    7.2750   20.8025 C   0  0  0  0  0  0  0  0  0  0  0  0
   10.2573    8.3215   20.9827 C   0  0  0  0  0  0  0  0  0  0  0  0
   11.1606    5.9378   21.2366 N   0  0  0  0  0  0  0  0  0  0  0  0
    9.8932   11.6736   19.0677 O   0  0  0  0  0  0  0  0  0  0  0  0
    6.4470    4.5850   22.2321 C   0  0  0  0  0  0  0  0  0  0  0  0
    8.4619    6.9895   22.2968 C   0  0  0  0  0  0  0  0  0  0  0  0
   12.2747    7.5102   20.0420 C   0  0  0  0  0  0  0  0  0  0  0  0
   14.2544    6.2142   19.4191 C   0  0  0  0  0  0  0  0  0  0  0  0
   13.0695    6.3705   20.0375 N   0  0  0  0  0  0  0  0  0  0  0  0
    9.1913    8.0876   21.8361 N   0  0  0  0  0  0  0  0  0  0  0  0
   10.4739    9.4813   20.2889 C   0  0  0  0  0  0  0  0  0  0  0  0
    7.5551    7.1270   23.1200 O   0  0  0  0  0  0  0  0  0  0  0  0
  1 11  4  0
  1 21  4  0
  2  4  1  0
  2  8  1  0
  2 11  1  0
  3 10  4  0
  3 14  4  0
  4  5  1  0
  4 18  2  0
  6 12  1  0
  6 17  4  0
  6 23  4  0
  7  9  1  0
  7 13  4  0
  7 19  4  0
  9 20  1  0
 10 19  4  0
 11 25  4  0
 13 14  4  0
 15 16  4  0
 15 17  4  0
 15 21  4  0
 16 24  1  0
 16 25  4  0
 20 24  1  0
 20 26  2  0
 21 23  4  0
 22 23  1  0
M  END
$$$$

 Created by Python create_sdf_string function

 26 28  0  0  0  0  0  0  0  0999 V2000
   12.4616    8.6700   19.4180 N   0  0  0  0  0  0  0  0  0  0  0  0
   11.8329   10.8148   18.6769 N   0  0  0  0  0  0  0  0  0  0  0  0
    6.1021    2.5564   21.0678 C   0  0  0  0  0  0  0  0  0  0  0  0
   10.9097   11.8051   18.4804 C   0  0  0  0  0  0  0  0  0  0  0  0
   11.2280   12.9135   17.5669 C   0  0  0  0  0  0  0  0  0  0  0  0
   12.3782    5.4231   20.7777 C   0  0  0  0  0  0  0  0  0  0  0  0
    7.7365    4.6508   21.6987 C   0  0  0  0  0  0  0  0  0  0  0  0
   13.0186   11.0102   18.0020 C   0  0  0  0  0  0  0  0  0  0  0  0
    8.6628    5.7088   21.8871 N   0  0  0  0  0  0  0  0  0  0  0  0
    5.6516    3.5258   21.9140 C   0  0  0  0  0  0  0  0  0  0  0  0
   11.5863    9.6815   19.4539 C   0  0  0  0  0  0  0  0  0  0  0  0
   12.9648    4.1543   20.9205 C   0  0  0  0  0  0  0  0  0  0  0  0
    8.2089    3.6265   20.8929 C   0  0  0  0  0  0  0  0  0  0  0  0
    7.3827    2.5724   20.5432 C   0  0  0  0  0  0  0  0  0  0  0  0
   11.1529    7.2750   20.8025 C   0  0  0  0  0  0  0  0  0  0  0  0
   10.2573    8.3215   20.9827 C   0  0  0  0  0  0  0  0  0  0  0  0
   11.1606    5.9378   21.2366 N   0  0  0  0  0  0  0  0  0  0  0  0
    9.8932   11.6736   19.0677 O   0  0  0  0  0  0  0  0  0  0  0  0
    6.4470    4.5850   22.2321 C   0  0  0  0  0  0  0  0  0  0  0  0
    8.4619    6.9895   22.2968 C   0  0  0  0  0  0  0  0  0  0  0  0
   12.2747    7.5102   20.0420 C   0  0  0  0  0  0  0  0  0  0  0  0
   14.2544    6.2142   19.4191 C   0  0  0  0  0  0  0  0  0  0  0  0
   13.0695    6.3705   20.0375 N   0  0  0  0  0  0  0  0  0  0  0  0
    9.1913    8.0876   21.8361 N   0  0  0  0  0  0  0  0  0  0  0  0
   10.4739    9.4813   20.2889 C   0  0  0  0  0  0  0  0  0  0  0  0
    7.5551    7.1270   23.1200 O   0  0  0  0  0  0  0  0  0  0  0  0
  1 11  4  0
  1 21  4  0
  2  4  1  0
  2  8  1  0
  2 11  1  0
  3 10  4  0
  3 14  4  0
  4  5  1  0
  4 18  2  0
  6 12  1  0
  6 17  4  0
  6 23  4  0
  7  9  1  0
  7 13  4  0
  7 19  4  0
  9 20  1  0
 10 19  4  0
 11 25  4  0
 13 14  4  0
 15 16  4  0
 15 17  4  0
 15 21  4  0
 16 24  1  0
 16 25  4  0
 20 24  1  0
 20 26  2  0
 21 23  4  0
 22 23  1  0
M  END
$$$$

 Created by Python create_sdf_string function

 26 28  0  0  0  0  0  0  0  0999 V2000
   12.4616    8.6700   19.4180 N   0  0  0  0  0  0  0  0  0  0  0  0
   11.8329   10.8148   18.6769 N   0  0  0  0  0  0  0  0  0  0  0  0
    6.1021    2.5564   21.0678 C   0  0  0  0  0  0  0  0  0  0  0  0
   10.9097   11.8051   18.4804 C   0  0  0  0  0  0  0  0  0  0  0  0
   11.2280   12.9135   17.5669 C   0  0  0  0  0  0  0  0  0  0  0  0
   12.3782    5.4231   20.7777 C   0  0  0  0  0  0  0  0  0  0  0  0
    7.7365    4.6508   21.6987 C   0  0  0  0  0  0  0  0  0  0  0  0
   13.0186   11.0102   18.0020 C   0  0  0  0  0  0  0  0  0  0  0  0
    8.6628    5.7088   21.8871 N   0  0  0  0  0  0  0  0  0  0  0  0
    5.6516    3.5258   21.9140 C   0  0  0  0  0  0  0  0  0  0  0  0
   11.5863    9.6815   19.4539 C   0  0  0  0  0  0  0  0  0  0  0  0
   12.9648    4.1543   20.9205 C   0  0  0  0  0  0  0  0  0  0  0  0
    8.2089    3.6265   20.8929 C   0  0  0  0  0  0  0  0  0  0  0  0
    7.3827    2.5724   20.5432 C   0  0  0  0  0  0  0  0  0  0  0  0
   11.1529    7.2750   20.8025 C   0  0  0  0  0  0  0  0  0  0  0  0
   10.2573    8.3215   20.9827 C   0  0  0  0  0  0  0  0  0  0  0  0
   11.1606    5.9378   21.2366 N   0  0  0  0  0  0  0  0  0  0  0  0
    9.8932   11.6736   19.0677 O   0  0  0  0  0  0  0  0  0  0  0  0
    6.4470    4.5850   22.2321 C   0  0  0  0  0  0  0  0  0  0  0  0
    8.4619    6.9895   22.2968 C   0  0  0  0  0  0  0  0  0  0  0  0
   12.2747    7.5102   20.0420 C   0  0  0  0  0  0  0  0  0  0  0  0
   14.2544    6.2142   19.4191 C   0  0  0  0  0  0  0  0  0  0  0  0
   13.0695    6.3705   20.0375 N   0  0  0  0  0  0  0  0  0  0  0  0
    9.1913    8.0876   21.8361 N   0  0  0  0  0  0  0  0  0  0  0  0
   10.4739    9.4813   20.2889 C   0  0  0  0  0  0  0  0  0  0  0  0
    7.5551    7.1270   23.1200 O   0  0  0  0  0  0  0  0  0  0  0  0
  1 11  4  0
  1 21  4  0
  2  4  1  0
  2  8  1  0
  2 11  1  0
  3 10  4  0
  3 14  4  0
  4  5  1  0
  4 18  2  0
  6 12  1  0
  6 17  4  0
  6 23  4  0
  7  9  1  0
  7 13  4  0
  7 19  4  0
  9 20  1  0
 10 19  4  0
 11 25  4  0
 13 14  4  0
 15 16  4  0
 15 17  4  0
 15 21  4  0
 16 24  1  0
 16 25  4  0
 20 24  1  0
 20 26  2  0
 21 23  4  0
 22 23  1  0
M  END
$$$$

 Created by Python create_sdf_string function

 26 28  0  0  0  0  0  0  0  0999 V2000
   12.4616    8.6700   19.4180 N   0  0  0  0  0  0  0  0  0  0  0  0
   11.8329   10.8148   18.6769 N   0  0  0  0  0  0  0  0  0  0  0  0
    6.1021    2.5564   21.0678 C   0  0  0  0  0  0  0  0  0  0  0  0
   10.9097   11.8051   18.4804 C   0  0  0  0  0  0  0  0  0  0  0  0
   11.2280   12.9135   17.5669 C   0  0  0  0  0  0  0  0  0  0  0  0
   12.3782    5.4231   20.7777 C   0  0  0  0  0  0  0  0  0  0  0  0
    7.7365    4.6508   21.6987 C   0  0  0  0  0  0  0  0  0  0  0  0
   13.0186   11.0102   18.0020 C   0  0  0  0  0  0  0  0  0  0  0  0
    8.6628    5.7088   21.8871 N   0  0  0  0  0  0  0  0  0  0  0  0
    5.6516    3.5258   21.9140 C   0  0  0  0  0  0  0  0  0  0  0  0
   11.5863    9.6815   19.4539 C   0  0  0  0  0  0  0  0  0  0  0  0
   12.9648    4.1543   20.9205 C   0  0  0  0  0  0  0  0  0  0  0  0
    8.2089    3.6265   20.8929 C   0  0  0  0  0  0  0  0  0  0  0  0
    7.3827    2.5724   20.5432 C   0  0  0  0  0  0  0  0  0  0  0  0
   11.1529    7.2750   20.8025 C   0  0  0  0  0  0  0  0  0  0  0  0
   10.2573    8.3215   20.9827 C   0  0  0  0  0  0  0  0  0  0  0  0
   11.1606    5.9378   21.2366 N   0  0  0  0  0  0  0  0  0  0  0  0
    9.8932   11.6736   19.0677 O   0  0  0  0  0  0  0  0  0  0  0  0
    6.4470    4.5850   22.2321 C   0  0  0  0  0  0  0  0  0  0  0  0
    8.4619    6.9895   22.2968 C   0  0  0  0  0  0  0  0  0  0  0  0
   12.2747    7.5102   20.0420 C   0  0  0  0  0  0  0  0  0  0  0  0
   14.2544    6.2142   19.4191 C   0  0  0  0  0  0  0  0  0  0  0  0
   13.0695    6.3705   20.0375 N   0  0  0  0  0  0  0  0  0  0  0  0
    9.1913    8.0876   21.8361 N   0  0  0  0  0  0  0  0  0  0  0  0
   10.4739    9.4813   20.2889 C   0  0  0  0  0  0  0  0  0  0  0  0
    7.5551    7.1270   23.1200 O   0  0  0  0  0  0  0  0  0  0  0  0
  1 11  4  0
  1 21  4  0
  2  4  1  0
  2  8  1  0
  2 11  1  0
  3 10  4  0
  3 14  4  0
  4  5  1  0
  4 18  2  0
  6 12  1  0
  6 17  4  0
  6 23  4  0
  7  9  1  0
  7 13  4  0
  7 19  4  0
  9 20  1  0
 10 19  4  0
 11 25  4  0
 13 14  4  0
 15 16  4  0
 15 17  4  0
 15 21  4  0
 16 24  1  0
 16 25  4  0
 20 24  1  0
 20 26  2  0
 21 23  4  0
 22 23  1  0
M  END
$$$$

 Created by Python create_sdf_string function

 26 28  0  0  0  0  0  0  0  0999 V2000
   12.4616    8.6700   19.4180 N   0  0  0  0  0  0  0  0  0  0  0  0
   11.8329   10.8148   18.6769 N   0  0  0  0  0  0  0  0  0  0  0  0
    6.1021    2.5564   21.0678 C   0  0  0  0  0  0  0  0  0  0  0  0
   10.9097   11.8051   18.4804 C   0  0  0  0  0  0  0  0  0  0  0  0
   11.2280   12.9135   17.5669 C   0  0  0  0  0  0  0  0  0  0  0  0
   12.3782    5.4231   20.7777 C   0  0  0  0  0  0  0  0  0  0  0  0
    7.7365    4.6508   21.6987 C   0  0  0  0  0  0  0  0  0  0  0  0
   13.0186   11.0102   18.0020 C   0  0  0  0  0  0  0  0  0  0  0  0
    8.6628    5.7088   21.8871 N   0  0  0  0  0  0  0  0  0  0  0  0
    5.6516    3.5258   21.9140 C   0  0  0  0  0  0  0  0  0  0  0  0
   11.5863    9.6815   19.4539 C   0  0  0  0  0  0  0  0  0  0  0  0
   12.9648    4.1543   20.9205 C   0  0  0  0  0  0  0  0  0  0  0  0
    8.2089    3.6265   20.8929 C   0  0  0  0  0  0  0  0  0  0  0  0
    7.3827    2.5724   20.5432 C   0  0  0  0  0  0  0  0  0  0  0  0
   11.1529    7.2750   20.8025 C   0  0  0  0  0  0  0  0  0  0  0  0
   10.2573    8.3215   20.9827 C   0  0  0  0  0  0  0  0  0  0  0  0
   11.1606    5.9378   21.2366 N   0  0  0  0  0  0  0  0  0  0  0  0
    9.8932   11.6736   19.0677 O   0  0  0  0  0  0  0  0  0  0  0  0
    6.4470    4.5850   22.2321 C   0  0  0  0  0  0  0  0  0  0  0  0
    8.4619    6.9895   22.2968 C   0  0  0  0  0  0  0  0  0  0  0  0
   12.2747    7.5102   20.0420 C   0  0  0  0  0  0  0  0  0  0  0  0
   14.2544    6.2142   19.4191 C   0  0  0  0  0  0  0  0  0  0  0  0
   13.0695    6.3705   20.0375 N   0  0  0  0  0  0  0  0  0  0  0  0
    9.1913    8.0876   21.8361 N   0  0  0  0  0  0  0  0  0  0  0  0
   10.4739    9.4813   20.2889 C   0  0  0  0  0  0  0  0  0  0  0  0
    7.5551    7.1270   23.1200 O   0  0  0  0  0  0  0  0  0  0  0  0
  1 11  4  0
  1 21  4  0
  2  4  1  0
  2  8  1  0
  2 11  1  0
  3 10  4  0
  3 14  4  0
  4  5  1  0
  4 18  2  0
  6 12  1  0
  6 17  4  0
  6 23  4  0
  7  9  1  0
  7 13  4  0
  7 19  4  0
  9 20  1  0
 10 19  4  0
 11 25  4  0
 13 14  4  0
 15 16  4  0
 15 17  4  0
 15 21  4  0
 16 24  1  0
 16 25  4  0
 20 24  1  0
 20 26  2  0
 21 23  4  0
 22 23  1  0
M  END
$$$$

 Created by Python create_sdf_string function

 26 28  0  0  0  0  0  0  0  0999 V2000
   12.4616    8.6700   19.4180 N   0  0  0  0  0  0  0  0  0  0  0  0
   11.8329   10.8148   18.6769 N   0  0  0  0  0  0  0  0  0  0  0  0
    6.1021    2.5564   21.0678 C   0  0  0  0  0  0  0  0  0  0  0  0
   10.9097   11.8051   18.4804 C   0  0  0  0  0  0  0  0  0  0  0  0
   11.2280   12.9135   17.5669 C   0  0  0  0  0  0  0  0  0  0  0  0
   12.3782    5.4231   20.7777 C   0  0  0  0  0  0  0  0  0  0  0  0
    7.7365    4.6508   21.6987 C   0  0  0  0  0  0  0  0  0  0  0  0
   13.0186   11.0102   18.0020 C   0  0  0  0  0  0  0  0  0  0  0  0
    8.6628    5.7088   21.8871 N   0  0  0  0  0  0  0  0  0  0  0  0
    5.6516    3.5258   21.9140 C   0  0  0  0  0  0  0  0  0  0  0  0
   11.5863    9.6815   19.4539 C   0  0  0  0  0  0  0  0  0  0  0  0
   12.9648    4.1543   20.9205 C   0  0  0  0  0  0  0  0  0  0  0  0
    8.2089    3.6265   20.8929 C   0  0  0  0  0  0  0  0  0  0  0  0
    7.3827    2.5724   20.5432 C   0  0  0  0  0  0  0  0  0  0  0  0
   11.1529    7.2750   20.8025 C   0  0  0  0  0  0  0  0  0  0  0  0
   10.2573    8.3215   20.9827 C   0  0  0  0  0  0  0  0  0  0  0  0
   11.1606    5.9378   21.2366 N   0  0  0  0  0  0  0  0  0  0  0  0
    9.8932   11.6736   19.0677 O   0  0  0  0  0  0  0  0  0  0  0  0
    6.4470    4.5850   22.2321 C   0  0  0  0  0  0  0  0  0  0  0  0
    8.4619    6.9895   22.2968 C   0  0  0  0  0  0  0  0  0  0  0  0
   12.2747    7.5102   20.0420 C   0  0  0  0  0  0  0  0  0  0  0  0
   14.2544    6.2142   19.4191 C   0  0  0  0  0  0  0  0  0  0  0  0
   13.0695    6.3705   20.0375 N   0  0  0  0  0  0  0  0  0  0  0  0
    9.1913    8.0876   21.8361 N   0  0  0  0  0  0  0  0  0  0  0  0
   10.4739    9.4813   20.2889 C   0  0  0  0  0  0  0  0  0  0  0  0
    7.5551    7.1270   23.1200 O   0  0  0  0  0  0  0  0  0  0  0  0
  1 11  4  0
  1 21  4  0
  2  4  1  0
  2  8  1  0
  2 11  1  0
  3 10  4  0
  3 14  4  0
  4  5  1  0
  4 18  2  0
  6 12  1  0
  6 17  4  0
  6 23  4  0
  7  9  1  0
  7 13  4  0
  7 19  4  0
  9 20  1  0
 10 19  4  0
 11 25  4  0
 13 14  4  0
 15 16  4  0
 15 17  4  0
 15 21  4  0
 16 24  1  0
 16 25  4  0
 20 24  1  0
 20 26  2  0
 21 23  4  0
 22 23  1  0
M  END
$$$$

 Created by Python create_sdf_string function

 26 28  0  0  0  0  0  0  0  0999 V2000
   12.4616    8.6700   19.4180 N   0  0  0  0  0  0  0  0  0  0  0  0
   11.8329   10.8148   18.6769 N   0  0  0  0  0  0  0  0  0  0  0  0
    6.1021    2.5564   21.0678 C   0  0  0  0  0  0  0  0  0  0  0  0
   10.9097   11.8051   18.4804 C   0  0  0  0  0  0  0  0  0  0  0  0
   11.2280   12.9135   17.5669 C   0  0  0  0  0  0  0  0  0  0  0  0
   12.3782    5.4231   20.7777 C   0  0  0  0  0  0  0  0  0  0  0  0
    7.7365    4.6508   21.6987 C   0  0  0  0  0  0  0  0  0  0  0  0
   13.0186   11.0102   18.0020 C   0  0  0  0  0  0  0  0  0  0  0  0
    8.6628    5.7088   21.8871 N   0  0  0  0  0  0  0  0  0  0  0  0
    5.6516    3.5258   21.9140 C   0  0  0  0  0  0  0  0  0  0  0  0
   11.5863    9.6815   19.4539 C   0  0  0  0  0  0  0  0  0  0  0  0
   12.9648    4.1543   20.9205 C   0  0  0  0  0  0  0  0  0  0  0  0
    8.2089    3.6265   20.8929 C   0  0  0  0  0  0  0  0  0  0  0  0
    7.3827    2.5724   20.5432 C   0  0  0  0  0  0  0  0  0  0  0  0
   11.1529    7.2750   20.8025 C   0  0  0  0  0  0  0  0  0  0  0  0
   10.2573    8.3215   20.9827 C   0  0  0  0  0  0  0  0  0  0  0  0
   11.1606    5.9378   21.2366 N   0  0  0  0  0  0  0  0  0  0  0  0
    9.8932   11.6736   19.0677 O   0  0  0  0  0  0  0  0  0  0  0  0
    6.4470    4.5850   22.2321 C   0  0  0  0  0  0  0  0  0  0  0  0
    8.4619    6.9895   22.2968 C   0  0  0  0  0  0  0  0  0  0  0  0
   12.2747    7.5102   20.0420 C   0  0  0  0  0  0  0  0  0  0  0  0
   14.2544    6.2142   19.4191 C   0  0  0  0  0  0  0  0  0  0  0  0
   13.0695    6.3705   20.0375 N   0  0  0  0  0  0  0  0  0  0  0  0
    9.1913    8.0876   21.8361 N   0  0  0  0  0  0  0  0  0  0  0  0
   10.4739    9.4813   20.2889 C   0  0  0  0  0  0  0  0  0  0  0  0
    7.5551    7.1270   23.1200 O   0  0  0  0  0  0  0  0  0  0  0  0
  1 11  4  0
  1 21  4  0
  2  4  1  0
  2  8  1  0
  2 11  1  0
  3 10  4  0
  3 14  4  0
  4  5  1  0
  4 18  2  0
  6 12  1  0
  6 17  4  0
  6 23  4  0
  7  9  1  0
  7 13  4  0
  7 19  4  0
  9 20  1  0
 10 19  4  0
 11 25  4  0
 13 14  4  0
 15 16  4  0
 15 17  4  0
 15 21  4  0
 16 24  1  0
 16 25  4  0
 20 24  1  0
 20 26  2  0
 21 23  4  0
 22 23  1  0
M  END
$$$$

 Created by Python create_sdf_string function

 26 28  0  0  0  0  0  0  0  0999 V2000
   12.4616    8.6700   19.4180 N   0  0  0  0  0  0  0  0  0  0  0  0
   11.8329   10.8148   18.6769 N   0  0  0  0  0  0  0  0  0  0  0  0
    6.1021    2.5564   21.0678 C   0  0  0  0  0  0  0  0  0  0  0  0
   10.9097   11.8051   18.4804 C   0  0  0  0  0  0  0  0  0  0  0  0
   11.2280   12.9135   17.5669 C   0  0  0  0  0  0  0  0  0  0  0  0
   12.3782    5.4231   20.7777 C   0  0  0  0  0  0  0  0  0  0  0  0
    7.7365    4.6508   21.6987 C   0  0  0  0  0  0  0  0  0  0  0  0
   13.0186   11.0102   18.0020 C   0  0  0  0  0  0  0  0  0  0  0  0
    8.6628    5.7088   21.8871 N   0  0  0  0  0  0  0  0  0  0  0  0
    5.6516    3.5258   21.9140 C   0  0  0  0  0  0  0  0  0  0  0  0
   11.5863    9.6815   19.4539 C   0  0  0  0  0  0  0  0  0  0  0  0
   12.9648    4.1543   20.9205 C   0  0  0  0  0  0  0  0  0  0  0  0
    8.2089    3.6265   20.8929 C   0  0  0  0  0  0  0  0  0  0  0  0
    7.3827    2.5724   20.5432 C   0  0  0  0  0  0  0  0  0  0  0  0
   11.1529    7.2750   20.8025 C   0  0  0  0  0  0  0  0  0  0  0  0
   10.2573    8.3215   20.9827 C   0  0  0  0  0  0  0  0  0  0  0  0
   11.1606    5.9378   21.2366 N   0  0  0  0  0  0  0  0  0  0  0  0
    9.8932   11.6736   19.0677 O   0  0  0  0  0  0  0  0  0  0  0  0
    6.4470    4.5850   22.2321 C   0  0  0  0  0  0  0  0  0  0  0  0
    8.4619    6.9895   22.2968 C   0  0  0  0  0  0  0  0  0  0  0  0
   12.2747    7.5102   20.0420 C   0  0  0  0  0  0  0  0  0  0  0  0
   14.2544    6.2142   19.4191 C   0  0  0  0  0  0  0  0  0  0  0  0
   13.0695    6.3705   20.0375 N   0  0  0  0  0  0  0  0  0  0  0  0
    9.1913    8.0876   21.8361 N   0  0  0  0  0  0  0  0  0  0  0  0
   10.4739    9.4813   20.2889 C   0  0  0  0  0  0  0  0  0  0  0  0
    7.5551    7.1270   23.1200 O   0  0  0  0  0  0  0  0  0  0  0  0
  1 11  4  0
  1 21  4  0
  2  4  1  0
  2  8  1  0
  2 11  1  0
  3 10  4  0
  3 14  4  0
  4  5  1  0
  4 18  2  0
  6 12  1  0
  6 17  4  0
  6 23  4  0
  7  9  1  0
  7 13  4  0
  7 19  4  0
  9 20  1  0
 10 19  4  0
 11 25  4  0
 13 14  4  0
 15 16  4  0
 15 17  4  0
 15 21  4  0
 16 24  1  0
 16 25  4  0
 20 24  1  0
 20 26  2  0
 21 23  4  0
 22 23  1  0
M  END
$$$$

 Created by Python create_sdf_string function

 26 28  0  0  0  0  0  0  0  0999 V2000
   12.4616    8.6700   19.4180 N   0  0  0  0  0  0  0  0  0  0  0  0
   11.8329   10.8148   18.6769 N   0  0  0  0  0  0  0  0  0  0  0  0
    6.1021    2.5564   21.0678 C   0  0  0  0  0  0  0  0  0  0  0  0
   10.9097   11.8051   18.4804 C   0  0  0  0  0  0  0  0  0  0  0  0
   11.2280   12.9135   17.5669 C   0  0  0  0  0  0  0  0  0  0  0  0
   12.3782    5.4231   20.7777 C   0  0  0  0  0  0  0  0  0  0  0  0
    7.7365    4.6508   21.6987 C   0  0  0  0  0  0  0  0  0  0  0  0
   13.0186   11.0102   18.0020 C   0  0  0  0  0  0  0  0  0  0  0  0
    8.6628    5.7088   21.8871 N   0  0  0  0  0  0  0  0  0  0  0  0
    5.6516    3.5258   21.9140 C   0  0  0  0  0  0  0  0  0  0  0  0
   11.5863    9.6815   19.4539 C   0  0  0  0  0  0  0  0  0  0  0  0
   12.9648    4.1543   20.9205 C   0  0  0  0  0  0  0  0  0  0  0  0
    8.2089    3.6265   20.8929 C   0  0  0  0  0  0  0  0  0  0  0  0
    7.3827    2.5724   20.5432 C   0  0  0  0  0  0  0  0  0  0  0  0
   11.1529    7.2750   20.8025 C   0  0  0  0  0  0  0  0  0  0  0  0
   10.2573    8.3215   20.9827 C   0  0  0  0  0  0  0  0  0  0  0  0
   11.1606    5.9378   21.2366 N   0  0  0  0  0  0  0  0  0  0  0  0
    9.8932   11.6736   19.0677 O   0  0  0  0  0  0  0  0  0  0  0  0
    6.4470    4.5850   22.2321 C   0  0  0  0  0  0  0  0  0  0  0  0
    8.4619    6.9895   22.2968 C   0  0  0  0  0  0  0  0  0  0  0  0
   12.2747    7.5102   20.0420 C   0  0  0  0  0  0  0  0  0  0  0  0
   14.2544    6.2142   19.4191 C   0  0  0  0  0  0  0  0  0  0  0  0
   13.0695    6.3705   20.0375 N   0  0  0  0  0  0  0  0  0  0  0  0
    9.1913    8.0876   21.8361 N   0  0  0  0  0  0  0  0  0  0  0  0
   10.4739    9.4813   20.2889 C   0  0  0  0  0  0  0  0  0  0  0  0
    7.5551    7.1270   23.1200 O   0  0  0  0  0  0  0  0  0  0  0  0
  1 11  4  0
  1 21  4  0
  2  4  1  0
  2  8  1  0
  2 11  1  0
  3 10  4  0
  3 14  4  0
  4  5  1  0
  4 18  2  0
  6 12  1  0
  6 17  4  0
  6 23  4  0
  7  9  1  0
  7 13  4  0
  7 19  4  0
  9 20  1  0
 10 19  4  0
 11 25  4  0
 13 14  4  0
 15 16  4  0
 15 17  4  0
 15 21  4  0
 16 24  1  0
 16 25  4  0
 20 24  1  0
 20 26  2  0
 21 23  4  0
 22 23  1  0
M  END
$$$$

 Created by Python create_sdf_string function

 26 28  0  0  0  0  0  0  0  0999 V2000
   12.4616    8.6700   19.4180 N   0  0  0  0  0  0  0  0  0  0  0  0
   11.8329   10.8148   18.6769 N   0  0  0  0  0  0  0  0  0  0  0  0
    6.1021    2.5564   21.0678 C   0  0  0  0  0  0  0  0  0  0  0  0
   10.9097   11.8051   18.4804 C   0  0  0  0  0  0  0  0  0  0  0  0
   11.2280   12.9135   17.5669 C   0  0  0  0  0  0  0  0  0  0  0  0
   12.3782    5.4231   20.7777 C   0  0  0  0  0  0  0  0  0  0  0  0
    7.7365    4.6508   21.6987 C   0  0  0  0  0  0  0  0  0  0  0  0
   13.0186   11.0102   18.0020 C   0  0  0  0  0  0  0  0  0  0  0  0
    8.6628    5.7088   21.8871 N   0  0  0  0  0  0  0  0  0  0  0  0
    5.6516    3.5258   21.9140 C   0  0  0  0  0  0  0  0  0  0  0  0
   11.5863    9.6815   19.4539 C   0  0  0  0  0  0  0  0  0  0  0  0
   12.9648    4.1543   20.9205 C   0  0  0  0  0  0  0  0  0  0  0  0
    8.2089    3.6265   20.8929 C   0  0  0  0  0  0  0  0  0  0  0  0
    7.3827    2.5724   20.5432 C   0  0  0  0  0  0  0  0  0  0  0  0
   11.1529    7.2750   20.8025 C   0  0  0  0  0  0  0  0  0  0  0  0
   10.2573    8.3215   20.9827 C   0  0  0  0  0  0  0  0  0  0  0  0
   11.1606    5.9378   21.2366 N   0  0  0  0  0  0  0  0  0  0  0  0
    9.8932   11.6736   19.0677 O   0  0  0  0  0  0  0  0  0  0  0  0
    6.4470    4.5850   22.2321 C   0  0  0  0  0  0  0  0  0  0  0  0
    8.4619    6.9895   22.2968 C   0  0  0  0  0  0  0  0  0  0  0  0
   12.2747    7.5102   20.0420 C   0  0  0  0  0  0  0  0  0  0  0  0
   14.2544    6.2142   19.4191 C   0  0  0  0  0  0  0  0  0  0  0  0
   13.0695    6.3705   20.0375 N   0  0  0  0  0  0  0  0  0  0  0  0
    9.1913    8.0876   21.8361 N   0  0  0  0  0  0  0  0  0  0  0  0
   10.4739    9.4813   20.2889 C   0  0  0  0  0  0  0  0  0  0  0  0
    7.5551    7.1270   23.1200 O   0  0  0  0  0  0  0  0  0  0  0  0
  1 11  4  0
  1 21  4  0
  2  4  1  0
  2  8  1  0
  2 11  1  0
  3 10  4  0
  3 14  4  0
  4  5  1  0
  4 18  2  0
  6 12  1  0
  6 17  4  0
  6 23  4  0
  7  9  1  0
  7 13  4  0
  7 19  4  0
  9 20  1  0
 10 19  4  0
 11 25  4  0
 13 14  4  0
 15 16  4  0
 15 17  4  0
 15 21  4  0
 16 24  1  0
 16 25  4  0
 20 24  1  0
 20 26  2  0
 21 23  4  0
 22 23  1  0
M  END
$$$$

 Created by Python create_sdf_string function

 26 28  0  0  0  0  0  0  0  0999 V2000
   12.4616    8.6700   19.4180 N   0  0  0  0  0  0  0  0  0  0  0  0
   11.8329   10.8148   18.6769 N   0  0  0  0  0  0  0  0  0  0  0  0
    6.1021    2.5564   21.0678 C   0  0  0  0  0  0  0  0  0  0  0  0
   10.9097   11.8051   18.4804 C   0  0  0  0  0  0  0  0  0  0  0  0
   11.2280   12.9135   17.5669 C   0  0  0  0  0  0  0  0  0  0  0  0
   12.3782    5.4231   20.7777 C   0  0  0  0  0  0  0  0  0  0  0  0
    7.7365    4.6508   21.6987 C   0  0  0  0  0  0  0  0  0  0  0  0
   13.0186   11.0102   18.0020 C   0  0  0  0  0  0  0  0  0  0  0  0
    8.6628    5.7088   21.8871 N   0  0  0  0  0  0  0  0  0  0  0  0
    5.6516    3.5258   21.9140 C   0  0  0  0  0  0  0  0  0  0  0  0
   11.5863    9.6815   19.4539 C   0  0  0  0  0  0  0  0  0  0  0  0
   12.9648    4.1543   20.9205 C   0  0  0  0  0  0  0  0  0  0  0  0
    8.2089    3.6265   20.8929 C   0  0  0  0  0  0  0  0  0  0  0  0
    7.3827    2.5724   20.5432 C   0  0  0  0  0  0  0  0  0  0  0  0
   11.1529    7.2750   20.8025 C   0  0  0  0  0  0  0  0  0  0  0  0
   10.2573    8.3215   20.9827 C   0  0  0  0  0  0  0  0  0  0  0  0
   11.1606    5.9378   21.2366 N   0  0  0  0  0  0  0  0  0  0  0  0
    9.8932   11.6736   19.0677 O   0  0  0  0  0  0  0  0  0  0  0  0
    6.4470    4.5850   22.2321 C   0  0  0  0  0  0  0  0  0  0  0  0
    8.4619    6.9895   22.2968 C   0  0  0  0  0  0  0  0  0  0  0  0
   12.2747    7.5102   20.0420 C   0  0  0  0  0  0  0  0  0  0  0  0
   14.2544    6.2142   19.4191 C   0  0  0  0  0  0  0  0  0  0  0  0
   13.0695    6.3705   20.0375 N   0  0  0  0  0  0  0  0  0  0  0  0
    9.1913    8.0876   21.8361 N   0  0  0  0  0  0  0  0  0  0  0  0
   10.4739    9.4813   20.2889 C   0  0  0  0  0  0  0  0  0  0  0  0
    7.5551    7.1270   23.1200 O   0  0  0  0  0  0  0  0  0  0  0  0
  1 11  4  0
  1 21  4  0
  2  4  1  0
  2  8  1  0
  2 11  1  0
  3 10  4  0
  3 14  4  0
  4  5  1  0
  4 18  2  0
  6 12  1  0
  6 17  4  0
  6 23  4  0
  7  9  1  0
  7 13  4  0
  7 19  4  0
  9 20  1  0
 10 19  4  0
 11 25  4  0
 13 14  4  0
 15 16  4  0
 15 17  4  0
 15 21  4  0
 16 24  1  0
 16 25  4  0
 20 24  1  0
 20 26  2  0
 21 23  4  0
 22 23  1  0
M  END
$$$$

 Created by Python create_sdf_string function

 26 28  0  0  0  0  0  0  0  0999 V2000
   12.4616    8.6700   19.4180 N   0  0  0  0  0  0  0  0  0  0  0  0
   11.8329   10.8148   18.6769 N   0  0  0  0  0  0  0  0  0  0  0  0
    6.1021    2.5564   21.0678 C   0  0  0  0  0  0  0  0  0  0  0  0
   10.9097   11.8051   18.4804 C   0  0  0  0  0  0  0  0  0  0  0  0
   11.2280   12.9135   17.5669 C   0  0  0  0  0  0  0  0  0  0  0  0
   12.3782    5.4231   20.7777 C   0  0  0  0  0  0  0  0  0  0  0  0
    7.7365    4.6508   21.6987 C   0  0  0  0  0  0  0  0  0  0  0  0
   13.0186   11.0102   18.0020 C   0  0  0  0  0  0  0  0  0  0  0  0
    8.6628    5.7088   21.8871 N   0  0  0  0  0  0  0  0  0  0  0  0
    5.6516    3.5258   21.9140 C   0  0  0  0  0  0  0  0  0  0  0  0
   11.5863    9.6815   19.4539 C   0  0  0  0  0  0  0  0  0  0  0  0
   12.9648    4.1543   20.9205 C   0  0  0  0  0  0  0  0  0  0  0  0
    8.2089    3.6265   20.8929 C   0  0  0  0  0  0  0  0  0  0  0  0
    7.3827    2.5724   20.5432 C   0  0  0  0  0  0  0  0  0  0  0  0
   11.1529    7.2750   20.8025 C   0  0  0  0  0  0  0  0  0  0  0  0
   10.2573    8.3215   20.9827 C   0  0  0  0  0  0  0  0  0  0  0  0
   11.1606    5.9378   21.2366 N   0  0  0  0  0  0  0  0  0  0  0  0
    9.8932   11.6736   19.0677 O   0  0  0  0  0  0  0  0  0  0  0  0
    6.4470    4.5850   22.2321 C   0  0  0  0  0  0  0  0  0  0  0  0
    8.4619    6.9895   22.2968 C   0  0  0  0  0  0  0  0  0  0  0  0
   12.2747    7.5102   20.0420 C   0  0  0  0  0  0  0  0  0  0  0  0
   14.2544    6.2142   19.4191 C   0  0  0  0  0  0  0  0  0  0  0  0
   13.0695    6.3705   20.0375 N   0  0  0  0  0  0  0  0  0  0  0  0
    9.1913    8.0876   21.8361 N   0  0  0  0  0  0  0  0  0  0  0  0
   10.4739    9.4813   20.2889 C   0  0  0  0  0  0  0  0  0  0  0  0
    7.5551    7.1270   23.1200 O   0  0  0  0  0  0  0  0  0  0  0  0
  1 11  4  0
  1 21  4  0
  2  4  1  0
  2  8  1  0
  2 11  1  0
  3 10  4  0
  3 14  4  0
  4  5  1  0
  4 18  2  0
  6 12  1  0
  6 17  4  0
  6 23  4  0
  7  9  1  0
  7 13  4  0
  7 19  4  0
  9 20  1  0
 10 19  4  0
 11 25  4  0
 13 14  4  0
 15 16  4  0
 15 17  4  0
 15 21  4  0
 16 24  1  0
 16 25  4  0
 20 24  1  0
 20 26  2  0
 21 23  4  0
 22 23  1  0
M  END
$$$$

 Created by Python create_sdf_string function

 26 28  0  0  0  0  0  0  0  0999 V2000
   12.4616    8.6700   19.4180 N   0  0  0  0  0  0  0  0  0  0  0  0
   11.8329   10.8148   18.6769 N   0  0  0  0  0  0  0  0  0  0  0  0
    6.1021    2.5564   21.0678 C   0  0  0  0  0  0  0  0  0  0  0  0
   10.9097   11.8051   18.4804 C   0  0  0  0  0  0  0  0  0  0  0  0
   11.2280   12.9135   17.5669 C   0  0  0  0  0  0  0  0  0  0  0  0
   12.3782    5.4231   20.7777 C   0  0  0  0  0  0  0  0  0  0  0  0
    7.7365    4.6508   21.6987 C   0  0  0  0  0  0  0  0  0  0  0  0
   13.0186   11.0102   18.0020 C   0  0  0  0  0  0  0  0  0  0  0  0
    8.6628    5.7088   21.8871 N   0  0  0  0  0  0  0  0  0  0  0  0
    5.6516    3.5258   21.9140 C   0  0  0  0  0  0  0  0  0  0  0  0
   11.5863    9.6815   19.4539 C   0  0  0  0  0  0  0  0  0  0  0  0
   12.9648    4.1543   20.9205 C   0  0  0  0  0  0  0  0  0  0  0  0
    8.2089    3.6265   20.8929 C   0  0  0  0  0  0  0  0  0  0  0  0
    7.3827    2.5724   20.5432 C   0  0  0  0  0  0  0  0  0  0  0  0
   11.1529    7.2750   20.8025 C   0  0  0  0  0  0  0  0  0  0  0  0
   10.2573    8.3215   20.9827 C   0  0  0  0  0  0  0  0  0  0  0  0
   11.1606    5.9378   21.2366 N   0  0  0  0  0  0  0  0  0  0  0  0
    9.8932   11.6736   19.0677 O   0  0  0  0  0  0  0  0  0  0  0  0
    6.4470    4.5850   22.2321 C   0  0  0  0  0  0  0  0  0  0  0  0
    8.4619    6.9895   22.2968 C   0  0  0  0  0  0  0  0  0  0  0  0
   12.2747    7.5102   20.0420 C   0  0  0  0  0  0  0  0  0  0  0  0
   14.2544    6.2142   19.4191 C   0  0  0  0  0  0  0  0  0  0  0  0
   13.0695    6.3705   20.0375 N   0  0  0  0  0  0  0  0  0  0  0  0
    9.1913    8.0876   21.8361 N   0  0  0  0  0  0  0  0  0  0  0  0
   10.4739    9.4813   20.2889 C   0  0  0  0  0  0  0  0  0  0  0  0
    7.5551    7.1270   23.1200 O   0  0  0  0  0  0  0  0  0  0  0  0
  1 11  4  0
  1 21  4  0
  2  4  1  0
  2  8  1  0
  2 11  1  0
  3 10  4  0
  3 14  4  0
  4  5  1  0
  4 18  2  0
  6 12  1  0
  6 17  4  0
  6 23  4  0
  7  9  1  0
  7 13  4  0
  7 19  4  0
  9 20  1  0
 10 19  4  0
 11 25  4  0
 13 14  4  0
 15 16  4  0
 15 17  4  0
 15 21  4  0
 16 24  1  0
 16 25  4  0
 20 24  1  0
 20 26  2  0
 21 23  4  0
 22 23  1  0
M  END
$$$$

 Created by Python create_sdf_string function

 26 28  0  0  0  0  0  0  0  0999 V2000
   12.4616    8.6700   19.4180 N   0  0  0  0  0  0  0  0  0  0  0  0
   11.8329   10.8148   18.6769 N   0  0  0  0  0  0  0  0  0  0  0  0
    6.1021    2.5564   21.0678 C   0  0  0  0  0  0  0  0  0  0  0  0
   10.9097   11.8051   18.4804 C   0  0  0  0  0  0  0  0  0  0  0  0
   11.2280   12.9135   17.5669 C   0  0  0  0  0  0  0  0  0  0  0  0
   12.3782    5.4231   20.7777 C   0  0  0  0  0  0  0  0  0  0  0  0
    7.7365    4.6508   21.6987 C   0  0  0  0  0  0  0  0  0  0  0  0
   13.0186   11.0102   18.0020 C   0  0  0  0  0  0  0  0  0  0  0  0
    8.6628    5.7088   21.8871 N   0  0  0  0  0  0  0  0  0  0  0  0
    5.6516    3.5258   21.9140 C   0  0  0  0  0  0  0  0  0  0  0  0
   11.5863    9.6815   19.4539 C   0  0  0  0  0  0  0  0  0  0  0  0
   12.9648    4.1543   20.9205 C   0  0  0  0  0  0  0  0  0  0  0  0
    8.2089    3.6265   20.8929 C   0  0  0  0  0  0  0  0  0  0  0  0
    7.3827    2.5724   20.5432 C   0  0  0  0  0  0  0  0  0  0  0  0
   11.1529    7.2750   20.8025 C   0  0  0  0  0  0  0  0  0  0  0  0
   10.2573    8.3215   20.9827 C   0  0  0  0  0  0  0  0  0  0  0  0
   11.1606    5.9378   21.2366 N   0  0  0  0  0  0  0  0  0  0  0  0
    9.8932   11.6736   19.0677 O   0  0  0  0  0  0  0  0  0  0  0  0
    6.4470    4.5850   22.2321 C   0  0  0  0  0  0  0  0  0  0  0  0
    8.4619    6.9895   22.2968 C   0  0  0  0  0  0  0  0  0  0  0  0
   12.2747    7.5102   20.0420 C   0  0  0  0  0  0  0  0  0  0  0  0
   14.2544    6.2142   19.4191 C   0  0  0  0  0  0  0  0  0  0  0  0
   13.0695    6.3705   20.0375 N   0  0  0  0  0  0  0  0  0  0  0  0
    9.1913    8.0876   21.8361 N   0  0  0  0  0  0  0  0  0  0  0  0
   10.4739    9.4813   20.2889 C   0  0  0  0  0  0  0  0  0  0  0  0
    7.5551    7.1270   23.1200 O   0  0  0  0  0  0  0  0  0  0  0  0
  1 11  4  0
  1 21  4  0
  2  4  1  0
  2  8  1  0
  2 11  1  0
  3 10  4  0
  3 14  4  0
  4  5  1  0
  4 18  2  0
  6 12  1  0
  6 17  4  0
  6 23  4  0
  7  9  1  0
  7 13  4  0
  7 19  4  0
  9 20  1  0
 10 19  4  0
 11 25  4  0
 13 14  4  0
 15 16  4  0
 15 17  4  0
 15 21  4  0
 16 24  1  0
 16 25  4  0
 20 24  1  0
 20 26  2  0
 21 23  4  0
 22 23  1  0
M  END
$$$$

 Created by Python create_sdf_string function

 26 28  0  0  0  0  0  0  0  0999 V2000
   12.4616    8.6700   19.4180 N   0  0  0  0  0  0  0  0  0  0  0  0
   11.8329   10.8148   18.6769 N   0  0  0  0  0  0  0  0  0  0  0  0
    6.1021    2.5564   21.0678 C   0  0  0  0  0  0  0  0  0  0  0  0
   10.9097   11.8051   18.4804 C   0  0  0  0  0  0  0  0  0  0  0  0
   11.2280   12.9135   17.5669 C   0  0  0  0  0  0  0  0  0  0  0  0
   12.3782    5.4231   20.7777 C   0  0  0  0  0  0  0  0  0  0  0  0
    7.7365    4.6508   21.6987 C   0  0  0  0  0  0  0  0  0  0  0  0
   13.0186   11.0102   18.0020 C   0  0  0  0  0  0  0  0  0  0  0  0
    8.6628    5.7088   21.8871 N   0  0  0  0  0  0  0  0  0  0  0  0
    5.6516    3.5258   21.9140 C   0  0  0  0  0  0  0  0  0  0  0  0
   11.5863    9.6815   19.4539 C   0  0  0  0  0  0  0  0  0  0  0  0
   12.9648    4.1543   20.9205 C   0  0  0  0  0  0  0  0  0  0  0  0
    8.2089    3.6265   20.8929 C   0  0  0  0  0  0  0  0  0  0  0  0
    7.3827    2.5724   20.5432 C   0  0  0  0  0  0  0  0  0  0  0  0
   11.1529    7.2750   20.8025 C   0  0  0  0  0  0  0  0  0  0  0  0
   10.2573    8.3215   20.9827 C   0  0  0  0  0  0  0  0  0  0  0  0
   11.1606    5.9378   21.2366 N   0  0  0  0  0  0  0  0  0  0  0  0
    9.8932   11.6736   19.0677 O   0  0  0  0  0  0  0  0  0  0  0  0
    6.4470    4.5850   22.2321 C   0  0  0  0  0  0  0  0  0  0  0  0
    8.4619    6.9895   22.2968 C   0  0  0  0  0  0  0  0  0  0  0  0
   12.2747    7.5102   20.0420 C   0  0  0  0  0  0  0  0  0  0  0  0
   14.2544    6.2142   19.4191 C   0  0  0  0  0  0  0  0  0  0  0  0
   13.0695    6.3705   20.0375 N   0  0  0  0  0  0  0  0  0  0  0  0
    9.1913    8.0876   21.8361 N   0  0  0  0  0  0  0  0  0  0  0  0
   10.4739    9.4813   20.2889 C   0  0  0  0  0  0  0  0  0  0  0  0
    7.5551    7.1270   23.1200 O   0  0  0  0  0  0  0  0  0  0  0  0
  1 11  4  0
  1 21  4  0
  2  4  1  0
  2  8  1  0
  2 11  1  0
  3 10  4  0
  3 14  4  0
  4  5  1  0
  4 18  2  0
  6 12  1  0
  6 17  4  0
  6 23  4  0
  7  9  1  0
  7 13  4  0
  7 19  4  0
  9 20  1  0
 10 19  4  0
 11 25  4  0
 13 14  4  0
 15 16  4  0
 15 17  4  0
 15 21  4  0
 16 24  1  0
 16 25  4  0
 20 24  1  0
 20 26  2  0
 21 23  4  0
 22 23  1  0
M  END
$$$$

 Created by Python create_sdf_string function

 26 28  0  0  0  0  0  0  0  0999 V2000
   12.4616    8.6700   19.4180 N   0  0  0  0  0  0  0  0  0  0  0  0
   11.8329   10.8148   18.6769 N   0  0  0  0  0  0  0  0  0  0  0  0
    6.1021    2.5564   21.0678 C   0  0  0  0  0  0  0  0  0  0  0  0
   10.9097   11.8051   18.4804 C   0  0  0  0  0  0  0  0  0  0  0  0
   11.2280   12.9135   17.5669 C   0  0  0  0  0  0  0  0  0  0  0  0
   12.3782    5.4231   20.7777 C   0  0  0  0  0  0  0  0  0  0  0  0
    7.7365    4.6508   21.6987 C   0  0  0  0  0  0  0  0  0  0  0  0
   13.0186   11.0102   18.0020 C   0  0  0  0  0  0  0  0  0  0  0  0
    8.6628    5.7088   21.8871 N   0  0  0  0  0  0  0  0  0  0  0  0
    5.6516    3.5258   21.9140 C   0  0  0  0  0  0  0  0  0  0  0  0
   11.5863    9.6815   19.4539 C   0  0  0  0  0  0  0  0  0  0  0  0
   12.9648    4.1543   20.9205 C   0  0  0  0  0  0  0  0  0  0  0  0
    8.2089    3.6265   20.8929 C   0  0  0  0  0  0  0  0  0  0  0  0
    7.3827    2.5724   20.5432 C   0  0  0  0  0  0  0  0  0  0  0  0
   11.1529    7.2750   20.8025 C   0  0  0  0  0  0  0  0  0  0  0  0
   10.2573    8.3215   20.9827 C   0  0  0  0  0  0  0  0  0  0  0  0
   11.1606    5.9378   21.2366 N   0  0  0  0  0  0  0  0  0  0  0  0
    9.8932   11.6736   19.0677 O   0  0  0  0  0  0  0  0  0  0  0  0
    6.4470    4.5850   22.2321 C   0  0  0  0  0  0  0  0  0  0  0  0
    8.4619    6.9895   22.2968 C   0  0  0  0  0  0  0  0  0  0  0  0
   12.2747    7.5102   20.0420 C   0  0  0  0  0  0  0  0  0  0  0  0
   14.2544    6.2142   19.4191 C   0  0  0  0  0  0  0  0  0  0  0  0
   13.0695    6.3705   20.0375 N   0  0  0  0  0  0  0  0  0  0  0  0
    9.1913    8.0876   21.8361 N   0  0  0  0  0  0  0  0  0  0  0  0
   10.4739    9.4813   20.2889 C   0  0  0  0  0  0  0  0  0  0  0  0
    7.5551    7.1270   23.1200 O   0  0  0  0  0  0  0  0  0  0  0  0
  1 11  4  0
  1 21  4  0
  2  4  1  0
  2  8  1  0
  2 11  1  0
  3 10  4  0
  3 14  4  0
  4  5  1  0
  4 18  2  0
  6 12  1  0
  6 17  4  0
  6 23  4  0
  7  9  1  0
  7 13  4  0
  7 19  4  0
  9 20  1  0
 10 19  4  0
 11 25  4  0
 13 14  4  0
 15 16  4  0
 15 17  4  0
 15 21  4  0
 16 24  1  0
 16 25  4  0
 20 24  1  0
 20 26  2  0
 21 23  4  0
 22 23  1  0
M  END
$$$$

 Created by Python create_sdf_string function

 26 28  0  0  0  0  0  0  0  0999 V2000
   12.4616    8.6700   19.4180 N   0  0  0  0  0  0  0  0  0  0  0  0
   11.8329   10.8148   18.6769 N   0  0  0  0  0  0  0  0  0  0  0  0
    6.1021    2.5564   21.0678 C   0  0  0  0  0  0  0  0  0  0  0  0
   10.9097   11.8051   18.4804 C   0  0  0  0  0  0  0  0  0  0  0  0
   11.2280   12.9135   17.5669 C   0  0  0  0  0  0  0  0  0  0  0  0
   12.3782    5.4231   20.7777 C   0  0  0  0  0  0  0  0  0  0  0  0
    7.7365    4.6508   21.6987 C   0  0  0  0  0  0  0  0  0  0  0  0
   13.0186   11.0102   18.0020 C   0  0  0  0  0  0  0  0  0  0  0  0
    8.6628    5.7088   21.8871 N   0  0  0  0  0  0  0  0  0  0  0  0
    5.6516    3.5258   21.9140 C   0  0  0  0  0  0  0  0  0  0  0  0
   11.5863    9.6815   19.4539 C   0  0  0  0  0  0  0  0  0  0  0  0
   12.9648    4.1543   20.9205 C   0  0  0  0  0  0  0  0  0  0  0  0
    8.2089    3.6265   20.8929 C   0  0  0  0  0  0  0  0  0  0  0  0
    7.3827    2.5724   20.5432 C   0  0  0  0  0  0  0  0  0  0  0  0
   11.1529    7.2750   20.8025 C   0  0  0  0  0  0  0  0  0  0  0  0
   10.2573    8.3215   20.9827 C   0  0  0  0  0  0  0  0  0  0  0  0
   11.1606    5.9378   21.2366 N   0  0  0  0  0  0  0  0  0  0  0  0
    9.8932   11.6736   19.0677 O   0  0  0  0  0  0  0  0  0  0  0  0
    6.4470    4.5850   22.2321 C   0  0  0  0  0  0  0  0  0  0  0  0
    8.4619    6.9895   22.2968 C   0  0  0  0  0  0  0  0  0  0  0  0
   12.2747    7.5102   20.0420 C   0  0  0  0  0  0  0  0  0  0  0  0
   14.2544    6.2142   19.4191 C   0  0  0  0  0  0  0  0  0  0  0  0
   13.0695    6.3705   20.0375 N   0  0  0  0  0  0  0  0  0  0  0  0
    9.1913    8.0876   21.8361 N   0  0  0  0  0  0  0  0  0  0  0  0
   10.4739    9.4813   20.2889 C   0  0  0  0  0  0  0  0  0  0  0  0
    7.5551    7.1270   23.1200 O   0  0  0  0  0  0  0  0  0  0  0  0
  1 11  4  0
  1 21  4  0
  2  4  1  0
  2  8  1  0
  2 11  1  0
  3 10  4  0
  3 14  4  0
  4  5  1  0
  4 18  2  0
  6 12  1  0
  6 17  4  0
  6 23  4  0
  7  9  1  0
  7 13  4  0
  7 19  4  0
  9 20  1  0
 10 19  4  0
 11 25  4  0
 13 14  4  0
 15 16  4  0
 15 17  4  0
 15 21  4  0
 16 24  1  0
 16 25  4  0
 20 24  1  0
 20 26  2  0
 21 23  4  0
 22 23  1  0
M  END
$$$$

 Created by Python create_sdf_string function

 26 28  0  0  0  0  0  0  0  0999 V2000
   12.4616    8.6700   19.4180 N   0  0  0  0  0  0  0  0  0  0  0  0
   11.8329   10.8148   18.6769 N   0  0  0  0  0  0  0  0  0  0  0  0
    6.1021    2.5564   21.0678 C   0  0  0  0  0  0  0  0  0  0  0  0
   10.9097   11.8051   18.4804 C   0  0  0  0  0  0  0  0  0  0  0  0
   11.2280   12.9135   17.5669 C   0  0  0  0  0  0  0  0  0  0  0  0
   12.3782    5.4231   20.7777 C   0  0  0  0  0  0  0  0  0  0  0  0
    7.7365    4.6508   21.6987 C   0  0  0  0  0  0  0  0  0  0  0  0
   13.0186   11.0102   18.0020 C   0  0  0  0  0  0  0  0  0  0  0  0
    8.6628    5.7088   21.8871 N   0  0  0  0  0  0  0  0  0  0  0  0
    5.6516    3.5258   21.9140 C   0  0  0  0  0  0  0  0  0  0  0  0
   11.5863    9.6815   19.4539 C   0  0  0  0  0  0  0  0  0  0  0  0
   12.9648    4.1543   20.9205 C   0  0  0  0  0  0  0  0  0  0  0  0
    8.2089    3.6265   20.8929 C   0  0  0  0  0  0  0  0  0  0  0  0
    7.3827    2.5724   20.5432 C   0  0  0  0  0  0  0  0  0  0  0  0
   11.1529    7.2750   20.8025 C   0  0  0  0  0  0  0  0  0  0  0  0
   10.2573    8.3215   20.9827 C   0  0  0  0  0  0  0  0  0  0  0  0
   11.1606    5.9378   21.2366 N   0  0  0  0  0  0  0  0  0  0  0  0
    9.8932   11.6736   19.0677 O   0  0  0  0  0  0  0  0  0  0  0  0
    6.4470    4.5850   22.2321 C   0  0  0  0  0  0  0  0  0  0  0  0
    8.4619    6.9895   22.2968 C   0  0  0  0  0  0  0  0  0  0  0  0
   12.2747    7.5102   20.0420 C   0  0  0  0  0  0  0  0  0  0  0  0
   14.2544    6.2142   19.4191 C   0  0  0  0  0  0  0  0  0  0  0  0
   13.0695    6.3705   20.0375 N   0  0  0  0  0  0  0  0  0  0  0  0
    9.1913    8.0876   21.8361 N   0  0  0  0  0  0  0  0  0  0  0  0
   10.4739    9.4813   20.2889 C   0  0  0  0  0  0  0  0  0  0  0  0
    7.5551    7.1270   23.1200 O   0  0  0  0  0  0  0  0  0  0  0  0
  1 11  4  0
  1 21  4  0
  2  4  1  0
  2  8  1  0
  2 11  1  0
  3 10  4  0
  3 14  4  0
  4  5  1  0
  4 18  2  0
  6 12  1  0
  6 17  4  0
  6 23  4  0
  7  9  1  0
  7 13  4  0
  7 19  4  0
  9 20  1  0
 10 19  4  0
 11 25  4  0
 13 14  4  0
 15 16  4  0
 15 17  4  0
 15 21  4  0
 16 24  1  0
 16 25  4  0
 20 24  1  0
 20 26  2  0
 21 23  4  0
 22 23  1  0
M  END
$$$$

 Created by Python create_sdf_string function

 26 28  0  0  0  0  0  0  0  0999 V2000
   12.4616    8.6700   19.4180 N   0  0  0  0  0  0  0  0  0  0  0  0
   11.8329   10.8148   18.6769 N   0  0  0  0  0  0  0  0  0  0  0  0
    6.1021    2.5564   21.0678 C   0  0  0  0  0  0  0  0  0  0  0  0
   10.9097   11.8051   18.4804 C   0  0  0  0  0  0  0  0  0  0  0  0
   11.2280   12.9135   17.5669 C   0  0  0  0  0  0  0  0  0  0  0  0
   12.3782    5.4231   20.7777 C   0  0  0  0  0  0  0  0  0  0  0  0
    7.7365    4.6508   21.6987 C   0  0  0  0  0  0  0  0  0  0  0  0
   13.0186   11.0102   18.0020 C   0  0  0  0  0  0  0  0  0  0  0  0
    8.6628    5.7088   21.8871 N   0  0  0  0  0  0  0  0  0  0  0  0
    5.6516    3.5258   21.9140 C   0  0  0  0  0  0  0  0  0  0  0  0
   11.5863    9.6815   19.4539 C   0  0  0  0  0  0  0  0  0  0  0  0
   12.9648    4.1543   20.9205 C   0  0  0  0  0  0  0  0  0  0  0  0
    8.2089    3.6265   20.8929 C   0  0  0  0  0  0  0  0  0  0  0  0
    7.3827    2.5724   20.5432 C   0  0  0  0  0  0  0  0  0  0  0  0
   11.1529    7.2750   20.8025 C   0  0  0  0  0  0  0  0  0  0  0  0
   10.2573    8.3215   20.9827 C   0  0  0  0  0  0  0  0  0  0  0  0
   11.1606    5.9378   21.2366 N   0  0  0  0  0  0  0  0  0  0  0  0
    9.8932   11.6736   19.0677 O   0  0  0  0  0  0  0  0  0  0  0  0
    6.4470    4.5850   22.2321 C   0  0  0  0  0  0  0  0  0  0  0  0
    8.4619    6.9895   22.2968 C   0  0  0  0  0  0  0  0  0  0  0  0
   12.2747    7.5102   20.0420 C   0  0  0  0  0  0  0  0  0  0  0  0
   14.2544    6.2142   19.4191 C   0  0  0  0  0  0  0  0  0  0  0  0
   13.0695    6.3705   20.0375 N   0  0  0  0  0  0  0  0  0  0  0  0
    9.1913    8.0876   21.8361 N   0  0  0  0  0  0  0  0  0  0  0  0
   10.4739    9.4813   20.2889 C   0  0  0  0  0  0  0  0  0  0  0  0
    7.5551    7.1270   23.1200 O   0  0  0  0  0  0  0  0  0  0  0  0
  1 11  4  0
  1 21  4  0
  2  4  1  0
  2  8  1  0
  2 11  1  0
  3 10  4  0
  3 14  4  0
  4  5  1  0
  4 18  2  0
  6 12  1  0
  6 17  4  0
  6 23  4  0
  7  9  1  0
  7 13  4  0
  7 19  4  0
  9 20  1  0
 10 19  4  0
 11 25  4  0
 13 14  4  0
 15 16  4  0
 15 17  4  0
 15 21  4  0
 16 24  1  0
 16 25  4  0
 20 24  1  0
 20 26  2  0
 21 23  4  0
 22 23  1  0
M  END
$$$$

 Created by Python create_sdf_string function

 26 28  0  0  0  0  0  0  0  0999 V2000
   12.4616    8.6700   19.4180 N   0  0  0  0  0  0  0  0  0  0  0  0
   11.8329   10.8148   18.6769 N   0  0  0  0  0  0  0  0  0  0  0  0
    6.1021    2.5564   21.0678 C   0  0  0  0  0  0  0  0  0  0  0  0
   10.9097   11.8051   18.4804 C   0  0  0  0  0  0  0  0  0  0  0  0
   11.2280   12.9135   17.5669 C   0  0  0  0  0  0  0  0  0  0  0  0
   12.3782    5.4231   20.7777 C   0  0  0  0  0  0  0  0  0  0  0  0
    7.7365    4.6508   21.6987 C   0  0  0  0  0  0  0  0  0  0  0  0
   13.0186   11.0102   18.0020 C   0  0  0  0  0  0  0  0  0  0  0  0
    8.6628    5.7088   21.8871 N   0  0  0  0  0  0  0  0  0  0  0  0
    5.6516    3.5258   21.9140 C   0  0  0  0  0  0  0  0  0  0  0  0
   11.5863    9.6815   19.4539 C   0  0  0  0  0  0  0  0  0  0  0  0
   12.9648    4.1543   20.9205 C   0  0  0  0  0  0  0  0  0  0  0  0
    8.2089    3.6265   20.8929 C   0  0  0  0  0  0  0  0  0  0  0  0
    7.3827    2.5724   20.5432 C   0  0  0  0  0  0  0  0  0  0  0  0
   11.1529    7.2750   20.8025 C   0  0  0  0  0  0  0  0  0  0  0  0
   10.2573    8.3215   20.9827 C   0  0  0  0  0  0  0  0  0  0  0  0
   11.1606    5.9378   21.2366 N   0  0  0  0  0  0  0  0  0  0  0  0
    9.8932   11.6736   19.0677 O   0  0  0  0  0  0  0  0  0  0  0  0
    6.4470    4.5850   22.2321 C   0  0  0  0  0  0  0  0  0  0  0  0
    8.4619    6.9895   22.2968 C   0  0  0  0  0  0  0  0  0  0  0  0
   12.2747    7.5102   20.0420 C   0  0  0  0  0  0  0  0  0  0  0  0
   14.2544    6.2142   19.4191 C   0  0  0  0  0  0  0  0  0  0  0  0
   13.0695    6.3705   20.0375 N   0  0  0  0  0  0  0  0  0  0  0  0
    9.1913    8.0876   21.8361 N   0  0  0  0  0  0  0  0  0  0  0  0
   10.4739    9.4813   20.2889 C   0  0  0  0  0  0  0  0  0  0  0  0
    7.5551    7.1270   23.1200 O   0  0  0  0  0  0  0  0  0  0  0  0
  1 11  4  0
  1 21  4  0
  2  4  1  0
  2  8  1  0
  2 11  1  0
  3 10  4  0
  3 14  4  0
  4  5  1  0
  4 18  2  0
  6 12  1  0
  6 17  4  0
  6 23  4  0
  7  9  1  0
  7 13  4  0
  7 19  4  0
  9 20  1  0
 10 19  4  0
 11 25  4  0
 13 14  4  0
 15 16  4  0
 15 17  4  0
 15 21  4  0
 16 24  1  0
 16 25  4  0
 20 24  1  0
 20 26  2  0
 21 23  4  0
 22 23  1  0
M  END
$$$$

 Created by Python create_sdf_string function

 26 28  0  0  0  0  0  0  0  0999 V2000
   12.4616    8.6700   19.4180 N   0  0  0  0  0  0  0  0  0  0  0  0
   11.8329   10.8148   18.6769 N   0  0  0  0  0  0  0  0  0  0  0  0
    6.1021    2.5564   21.0678 C   0  0  0  0  0  0  0  0  0  0  0  0
   10.9097   11.8051   18.4804 C   0  0  0  0  0  0  0  0  0  0  0  0
   11.2280   12.9135   17.5669 C   0  0  0  0  0  0  0  0  0  0  0  0
   12.3782    5.4231   20.7777 C   0  0  0  0  0  0  0  0  0  0  0  0
    7.7365    4.6508   21.6987 C   0  0  0  0  0  0  0  0  0  0  0  0
   13.0186   11.0102   18.0020 C   0  0  0  0  0  0  0  0  0  0  0  0
    8.6628    5.7088   21.8871 N   0  0  0  0  0  0  0  0  0  0  0  0
    5.6516    3.5258   21.9140 C   0  0  0  0  0  0  0  0  0  0  0  0
   11.5863    9.6815   19.4539 C   0  0  0  0  0  0  0  0  0  0  0  0
   12.9648    4.1543   20.9205 C   0  0  0  0  0  0  0  0  0  0  0  0
    8.2089    3.6265   20.8929 C   0  0  0  0  0  0  0  0  0  0  0  0
    7.3827    2.5724   20.5432 C   0  0  0  0  0  0  0  0  0  0  0  0
   11.1529    7.2750   20.8025 C   0  0  0  0  0  0  0  0  0  0  0  0
   10.2573    8.3215   20.9827 C   0  0  0  0  0  0  0  0  0  0  0  0
   11.1606    5.9378   21.2366 N   0  0  0  0  0  0  0  0  0  0  0  0
    9.8932   11.6736   19.0677 O   0  0  0  0  0  0  0  0  0  0  0  0
    6.4470    4.5850   22.2321 C   0  0  0  0  0  0  0  0  0  0  0  0
    8.4619    6.9895   22.2968 C   0  0  0  0  0  0  0  0  0  0  0  0
   12.2747    7.5102   20.0420 C   0  0  0  0  0  0  0  0  0  0  0  0
   14.2544    6.2142   19.4191 C   0  0  0  0  0  0  0  0  0  0  0  0
   13.0695    6.3705   20.0375 N   0  0  0  0  0  0  0  0  0  0  0  0
    9.1913    8.0876   21.8361 N   0  0  0  0  0  0  0  0  0  0  0  0
   10.4739    9.4813   20.2889 C   0  0  0  0  0  0  0  0  0  0  0  0
    7.5551    7.1270   23.1200 O   0  0  0  0  0  0  0  0  0  0  0  0
  1 11  4  0
  1 21  4  0
  2  4  1  0
  2  8  1  0
  2 11  1  0
  3 10  4  0
  3 14  4  0
  4  5  1  0
  4 18  2  0
  6 12  1  0
  6 17  4  0
  6 23  4  0
  7  9  1  0
  7 13  4  0
  7 19  4  0
  9 20  1  0
 10 19  4  0
 11 25  4  0
 13 14  4  0
 15 16  4  0
 15 17  4  0
 15 21  4  0
 16 24  1  0
 16 25  4  0
 20 24  1  0
 20 26  2  0
 21 23  4  0
 22 23  1  0
M  END
$$$$

 Created by Python create_sdf_string function

 26 28  0  0  0  0  0  0  0  0999 V2000
   12.4616    8.6700   19.4180 N   0  0  0  0  0  0  0  0  0  0  0  0
   11.8329   10.8148   18.6769 N   0  0  0  0  0  0  0  0  0  0  0  0
    6.1021    2.5564   21.0678 C   0  0  0  0  0  0  0  0  0  0  0  0
   10.9097   11.8051   18.4804 C   0  0  0  0  0  0  0  0  0  0  0  0
   11.2280   12.9135   17.5669 C   0  0  0  0  0  0  0  0  0  0  0  0
   12.3782    5.4231   20.7777 C   0  0  0  0  0  0  0  0  0  0  0  0
    7.7365    4.6508   21.6987 C   0  0  0  0  0  0  0  0  0  0  0  0
   13.0186   11.0102   18.0020 C   0  0  0  0  0  0  0  0  0  0  0  0
    8.6628    5.7088   21.8871 N   0  0  0  0  0  0  0  0  0  0  0  0
    5.6516    3.5258   21.9140 C   0  0  0  0  0  0  0  0  0  0  0  0
   11.5863    9.6815   19.4539 C   0  0  0  0  0  0  0  0  0  0  0  0
   12.9648    4.1543   20.9205 C   0  0  0  0  0  0  0  0  0  0  0  0
    8.2089    3.6265   20.8929 C   0  0  0  0  0  0  0  0  0  0  0  0
    7.3827    2.5724   20.5432 C   0  0  0  0  0  0  0  0  0  0  0  0
   11.1529    7.2750   20.8025 C   0  0  0  0  0  0  0  0  0  0  0  0
   10.2573    8.3215   20.9827 C   0  0  0  0  0  0  0  0  0  0  0  0
   11.1606    5.9378   21.2366 N   0  0  0  0  0  0  0  0  0  0  0  0
    9.8932   11.6736   19.0677 O   0  0  0  0  0  0  0  0  0  0  0  0
    6.4470    4.5850   22.2321 C   0  0  0  0  0  0  0  0  0  0  0  0
    8.4619    6.9895   22.2968 C   0  0  0  0  0  0  0  0  0  0  0  0
   12.2747    7.5102   20.0420 C   0  0  0  0  0  0  0  0  0  0  0  0
   14.2544    6.2142   19.4191 C   0  0  0  0  0  0  0  0  0  0  0  0
   13.0695    6.3705   20.0375 N   0  0  0  0  0  0  0  0  0  0  0  0
    9.1913    8.0876   21.8361 N   0  0  0  0  0  0  0  0  0  0  0  0
   10.4739    9.4813   20.2889 C   0  0  0  0  0  0  0  0  0  0  0  0
    7.5551    7.1270   23.1200 O   0  0  0  0  0  0  0  0  0  0  0  0
  1 11  4  0
  1 21  4  0
  2  4  1  0
  2  8  1  0
  2 11  1  0
  3 10  4  0
  3 14  4  0
  4  5  1  0
  4 18  2  0
  6 12  1  0
  6 17  4  0
  6 23  4  0
  7  9  1  0
  7 13  4  0
  7 19  4  0
  9 20  1  0
 10 19  4  0
 11 25  4  0
 13 14  4  0
 15 16  4  0
 15 17  4  0
 15 21  4  0
 16 24  1  0
 16 25  4  0
 20 24  1  0
 20 26  2  0
 21 23  4  0
 22 23  1  0
M  END
$$$$

 Created by Python create_sdf_string function

 26 28  0  0  0  0  0  0  0  0999 V2000
   12.4616    8.6700   19.4180 N   0  0  0  0  0  0  0  0  0  0  0  0
   11.8329   10.8148   18.6769 N   0  0  0  0  0  0  0  0  0  0  0  0
    6.1021    2.5564   21.0678 C   0  0  0  0  0  0  0  0  0  0  0  0
   10.9097   11.8051   18.4804 C   0  0  0  0  0  0  0  0  0  0  0  0
   11.2280   12.9135   17.5669 C   0  0  0  0  0  0  0  0  0  0  0  0
   12.3782    5.4231   20.7777 C   0  0  0  0  0  0  0  0  0  0  0  0
    7.7365    4.6508   21.6987 C   0  0  0  0  0  0  0  0  0  0  0  0
   13.0186   11.0102   18.0020 C   0  0  0  0  0  0  0  0  0  0  0  0
    8.6628    5.7088   21.8871 N   0  0  0  0  0  0  0  0  0  0  0  0
    5.6516    3.5258   21.9140 C   0  0  0  0  0  0  0  0  0  0  0  0
   11.5863    9.6815   19.4539 C   0  0  0  0  0  0  0  0  0  0  0  0
   12.9648    4.1543   20.9205 C   0  0  0  0  0  0  0  0  0  0  0  0
    8.2089    3.6265   20.8929 C   0  0  0  0  0  0  0  0  0  0  0  0
    7.3827    2.5724   20.5432 C   0  0  0  0  0  0  0  0  0  0  0  0
   11.1529    7.2750   20.8025 C   0  0  0  0  0  0  0  0  0  0  0  0
   10.2573    8.3215   20.9827 C   0  0  0  0  0  0  0  0  0  0  0  0
   11.1606    5.9378   21.2366 N   0  0  0  0  0  0  0  0  0  0  0  0
    9.8932   11.6736   19.0677 O   0  0  0  0  0  0  0  0  0  0  0  0
    6.4470    4.5850   22.2321 C   0  0  0  0  0  0  0  0  0  0  0  0
    8.4619    6.9895   22.2968 C   0  0  0  0  0  0  0  0  0  0  0  0
   12.2747    7.5102   20.0420 C   0  0  0  0  0  0  0  0  0  0  0  0
   14.2544    6.2142   19.4191 C   0  0  0  0  0  0  0  0  0  0  0  0
   13.0695    6.3705   20.0375 N   0  0  0  0  0  0  0  0  0  0  0  0
    9.1913    8.0876   21.8361 N   0  0  0  0  0  0  0  0  0  0  0  0
   10.4739    9.4813   20.2889 C   0  0  0  0  0  0  0  0  0  0  0  0
    7.5551    7.1270   23.1200 O   0  0  0  0  0  0  0  0  0  0  0  0
  1 11  4  0
  1 21  4  0
  2  4  1  0
  2  8  1  0
  2 11  1  0
  3 10  4  0
  3 14  4  0
  4  5  1  0
  4 18  2  0
  6 12  1  0
  6 17  4  0
  6 23  4  0
  7  9  1  0
  7 13  4  0
  7 19  4  0
  9 20  1  0
 10 19  4  0
 11 25  4  0
 13 14  4  0
 15 16  4  0
 15 17  4  0
 15 21  4  0
 16 24  1  0
 16 25  4  0
 20 24  1  0
 20 26  2  0
 21 23  4  0
 22 23  1  0
M  END
$$$$

 Created by Python create_sdf_string function

 26 28  0  0  0  0  0  0  0  0999 V2000
   12.4616    8.6700   19.4180 N   0  0  0  0  0  0  0  0  0  0  0  0
   11.8329   10.8148   18.6769 N   0  0  0  0  0  0  0  0  0  0  0  0
    6.1021    2.5564   21.0678 C   0  0  0  0  0  0  0  0  0  0  0  0
   10.9097   11.8051   18.4804 C   0  0  0  0  0  0  0  0  0  0  0  0
   11.2280   12.9135   17.5669 C   0  0  0  0  0  0  0  0  0  0  0  0
   12.3782    5.4231   20.7777 C   0  0  0  0  0  0  0  0  0  0  0  0
    7.7365    4.6508   21.6987 C   0  0  0  0  0  0  0  0  0  0  0  0
   13.0186   11.0102   18.0020 C   0  0  0  0  0  0  0  0  0  0  0  0
    8.6628    5.7088   21.8871 N   0  0  0  0  0  0  0  0  0  0  0  0
    5.6516    3.5258   21.9140 C   0  0  0  0  0  0  0  0  0  0  0  0
   11.5863    9.6815   19.4539 C   0  0  0  0  0  0  0  0  0  0  0  0
   12.9648    4.1543   20.9205 C   0  0  0  0  0  0  0  0  0  0  0  0
    8.2089    3.6265   20.8929 C   0  0  0  0  0  0  0  0  0  0  0  0
    7.3827    2.5724   20.5432 C   0  0  0  0  0  0  0  0  0  0  0  0
   11.1529    7.2750   20.8025 C   0  0  0  0  0  0  0  0  0  0  0  0
   10.2573    8.3215   20.9827 C   0  0  0  0  0  0  0  0  0  0  0  0
   11.1606    5.9378   21.2366 N   0  0  0  0  0  0  0  0  0  0  0  0
    9.8932   11.6736   19.0677 O   0  0  0  0  0  0  0  0  0  0  0  0
    6.4470    4.5850   22.2321 C   0  0  0  0  0  0  0  0  0  0  0  0
    8.4619    6.9895   22.2968 C   0  0  0  0  0  0  0  0  0  0  0  0
   12.2747    7.5102   20.0420 C   0  0  0  0  0  0  0  0  0  0  0  0
   14.2544    6.2142   19.4191 C   0  0  0  0  0  0  0  0  0  0  0  0
   13.0695    6.3705   20.0375 N   0  0  0  0  0  0  0  0  0  0  0  0
    9.1913    8.0876   21.8361 N   0  0  0  0  0  0  0  0  0  0  0  0
   10.4739    9.4813   20.2889 C   0  0  0  0  0  0  0  0  0  0  0  0
    7.5551    7.1270   23.1200 O   0  0  0  0  0  0  0  0  0  0  0  0
  1 11  4  0
  1 21  4  0
  2  4  1  0
  2  8  1  0
  2 11  1  0
  3 10  4  0
  3 14  4  0
  4  5  1  0
  4 18  2  0
  6 12  1  0
  6 17  4  0
  6 23  4  0
  7  9  1  0
  7 13  4  0
  7 19  4  0
  9 20  1  0
 10 19  4  0
 11 25  4  0
 13 14  4  0
 15 16  4  0
 15 17  4  0
 15 21  4  0
 16 24  1  0
 16 25  4  0
 20 24  1  0
 20 26  2  0
 21 23  4  0
 22 23  1  0
M  END
$$$$

 Created by Python create_sdf_string function

 26 28  0  0  0  0  0  0  0  0999 V2000
   12.4616    8.6700   19.4180 N   0  0  0  0  0  0  0  0  0  0  0  0
   11.8329   10.8148   18.6769 N   0  0  0  0  0  0  0  0  0  0  0  0
    6.1021    2.5564   21.0678 C   0  0  0  0  0  0  0  0  0  0  0  0
   10.9097   11.8051   18.4804 C   0  0  0  0  0  0  0  0  0  0  0  0
   11.2280   12.9135   17.5669 C   0  0  0  0  0  0  0  0  0  0  0  0
   12.3782    5.4231   20.7777 C   0  0  0  0  0  0  0  0  0  0  0  0
    7.7365    4.6508   21.6987 C   0  0  0  0  0  0  0  0  0  0  0  0
   13.0186   11.0102   18.0020 C   0  0  0  0  0  0  0  0  0  0  0  0
    8.6628    5.7088   21.8871 N   0  0  0  0  0  0  0  0  0  0  0  0
    5.6516    3.5258   21.9140 C   0  0  0  0  0  0  0  0  0  0  0  0
   11.5863    9.6815   19.4539 C   0  0  0  0  0  0  0  0  0  0  0  0
   12.9648    4.1543   20.9205 C   0  0  0  0  0  0  0  0  0  0  0  0
    8.2089    3.6265   20.8929 C   0  0  0  0  0  0  0  0  0  0  0  0
    7.3827    2.5724   20.5432 C   0  0  0  0  0  0  0  0  0  0  0  0
   11.1529    7.2750   20.8025 C   0  0  0  0  0  0  0  0  0  0  0  0
   10.2573    8.3215   20.9827 C   0  0  0  0  0  0  0  0  0  0  0  0
   11.1606    5.9378   21.2366 N   0  0  0  0  0  0  0  0  0  0  0  0
    9.8932   11.6736   19.0677 O   0  0  0  0  0  0  0  0  0  0  0  0
    6.4470    4.5850   22.2321 C   0  0  0  0  0  0  0  0  0  0  0  0
    8.4619    6.9895   22.2968 C   0  0  0  0  0  0  0  0  0  0  0  0
   12.2747    7.5102   20.0420 C   0  0  0  0  0  0  0  0  0  0  0  0
   14.2544    6.2142   19.4191 C   0  0  0  0  0  0  0  0  0  0  0  0
   13.0695    6.3705   20.0375 N   0  0  0  0  0  0  0  0  0  0  0  0
    9.1913    8.0876   21.8361 N   0  0  0  0  0  0  0  0  0  0  0  0
   10.4739    9.4813   20.2889 C   0  0  0  0  0  0  0  0  0  0  0  0
    7.5551    7.1270   23.1200 O   0  0  0  0  0  0  0  0  0  0  0  0
  1 11  4  0
  1 21  4  0
  2  4  1  0
  2  8  1  0
  2 11  1  0
  3 10  4  0
  3 14  4  0
  4  5  1  0
  4 18  2  0
  6 12  1  0
  6 17  4  0
  6 23  4  0
  7  9  1  0
  7 13  4  0
  7 19  4  0
  9 20  1  0
 10 19  4  0
 11 25  4  0
 13 14  4  0
 15 16  4  0
 15 17  4  0
 15 21  4  0
 16 24  1  0
 16 25  4  0
 20 24  1  0
 20 26  2  0
 21 23  4  0
 22 23  1  0
M  END
$$$$

 Created by Python create_sdf_string function

 26 28  0  0  0  0  0  0  0  0999 V2000
   12.4616    8.6700   19.4180 N   0  0  0  0  0  0  0  0  0  0  0  0
   11.8329   10.8148   18.6769 N   0  0  0  0  0  0  0  0  0  0  0  0
    6.1021    2.5564   21.0678 C   0  0  0  0  0  0  0  0  0  0  0  0
   10.9097   11.8051   18.4804 C   0  0  0  0  0  0  0  0  0  0  0  0
   11.2280   12.9135   17.5669 C   0  0  0  0  0  0  0  0  0  0  0  0
   12.3782    5.4231   20.7777 C   0  0  0  0  0  0  0  0  0  0  0  0
    7.7365    4.6508   21.6987 C   0  0  0  0  0  0  0  0  0  0  0  0
   13.0186   11.0102   18.0020 C   0  0  0  0  0  0  0  0  0  0  0  0
    8.6628    5.7088   21.8871 N   0  0  0  0  0  0  0  0  0  0  0  0
    5.6516    3.5258   21.9140 C   0  0  0  0  0  0  0  0  0  0  0  0
   11.5863    9.6815   19.4539 C   0  0  0  0  0  0  0  0  0  0  0  0
   12.9648    4.1543   20.9205 C   0  0  0  0  0  0  0  0  0  0  0  0
    8.2089    3.6265   20.8929 C   0  0  0  0  0  0  0  0  0  0  0  0
    7.3827    2.5724   20.5432 C   0  0  0  0  0  0  0  0  0  0  0  0
   11.1529    7.2750   20.8025 C   0  0  0  0  0  0  0  0  0  0  0  0
   10.2573    8.3215   20.9827 C   0  0  0  0  0  0  0  0  0  0  0  0
   11.1606    5.9378   21.2366 N   0  0  0  0  0  0  0  0  0  0  0  0
    9.8932   11.6736   19.0677 O   0  0  0  0  0  0  0  0  0  0  0  0
    6.4470    4.5850   22.2321 C   0  0  0  0  0  0  0  0  0  0  0  0
    8.4619    6.9895   22.2968 C   0  0  0  0  0  0  0  0  0  0  0  0
   12.2747    7.5102   20.0420 C   0  0  0  0  0  0  0  0  0  0  0  0
   14.2544    6.2142   19.4191 C   0  0  0  0  0  0  0  0  0  0  0  0
   13.0695    6.3705   20.0375 N   0  0  0  0  0  0  0  0  0  0  0  0
    9.1913    8.0876   21.8361 N   0  0  0  0  0  0  0  0  0  0  0  0
   10.4739    9.4813   20.2889 C   0  0  0  0  0  0  0  0  0  0  0  0
    7.5551    7.1270   23.1200 O   0  0  0  0  0  0  0  0  0  0  0  0
  1 11  4  0
  1 21  4  0
  2  4  1  0
  2  8  1  0
  2 11  1  0
  3 10  4  0
  3 14  4  0
  4  5  1  0
  4 18  2  0
  6 12  1  0
  6 17  4  0
  6 23  4  0
  7  9  1  0
  7 13  4  0
  7 19  4  0
  9 20  1  0
 10 19  4  0
 11 25  4  0
 13 14  4  0
 15 16  4  0
 15 17  4  0
 15 21  4  0
 16 24  1  0
 16 25  4  0
 20 24  1  0
 20 26  2  0
 21 23  4  0
 22 23  1  0
M  END
$$$$

 Created by Python create_sdf_string function

 26 28  0  0  0  0  0  0  0  0999 V2000
   12.4616    8.6700   19.4180 N   0  0  0  0  0  0  0  0  0  0  0  0
   11.8329   10.8148   18.6769 N   0  0  0  0  0  0  0  0  0  0  0  0
    6.1021    2.5564   21.0678 C   0  0  0  0  0  0  0  0  0  0  0  0
   10.9097   11.8051   18.4804 C   0  0  0  0  0  0  0  0  0  0  0  0
   11.2280   12.9135   17.5669 C   0  0  0  0  0  0  0  0  0  0  0  0
   12.3782    5.4231   20.7777 C   0  0  0  0  0  0  0  0  0  0  0  0
    7.7365    4.6508   21.6987 C   0  0  0  0  0  0  0  0  0  0  0  0
   13.0186   11.0102   18.0020 C   0  0  0  0  0  0  0  0  0  0  0  0
    8.6628    5.7088   21.8871 N   0  0  0  0  0  0  0  0  0  0  0  0
    5.6516    3.5258   21.9140 C   0  0  0  0  0  0  0  0  0  0  0  0
   11.5863    9.6815   19.4539 C   0  0  0  0  0  0  0  0  0  0  0  0
   12.9648    4.1543   20.9205 C   0  0  0  0  0  0  0  0  0  0  0  0
    8.2089    3.6265   20.8929 C   0  0  0  0  0  0  0  0  0  0  0  0
    7.3827    2.5724   20.5432 C   0  0  0  0  0  0  0  0  0  0  0  0
   11.1529    7.2750   20.8025 C   0  0  0  0  0  0  0  0  0  0  0  0
   10.2573    8.3215   20.9827 C   0  0  0  0  0  0  0  0  0  0  0  0
   11.1606    5.9378   21.2366 N   0  0  0  0  0  0  0  0  0  0  0  0
    9.8932   11.6736   19.0677 O   0  0  0  0  0  0  0  0  0  0  0  0
    6.4470    4.5850   22.2321 C   0  0  0  0  0  0  0  0  0  0  0  0
    8.4619    6.9895   22.2968 C   0  0  0  0  0  0  0  0  0  0  0  0
   12.2747    7.5102   20.0420 C   0  0  0  0  0  0  0  0  0  0  0  0
   14.2544    6.2142   19.4191 C   0  0  0  0  0  0  0  0  0  0  0  0
   13.0695    6.3705   20.0375 N   0  0  0  0  0  0  0  0  0  0  0  0
    9.1913    8.0876   21.8361 N   0  0  0  0  0  0  0  0  0  0  0  0
   10.4739    9.4813   20.2889 C   0  0  0  0  0  0  0  0  0  0  0  0
    7.5551    7.1270   23.1200 O   0  0  0  0  0  0  0  0  0  0  0  0
  1 11  4  0
  1 21  4  0
  2  4  1  0
  2  8  1  0
  2 11  1  0
  3 10  4  0
  3 14  4  0
  4  5  1  0
  4 18  2  0
  6 12  1  0
  6 17  4  0
  6 23  4  0
  7  9  1  0
  7 13  4  0
  7 19  4  0
  9 20  1  0
 10 19  4  0
 11 25  4  0
 13 14  4  0
 15 16  4  0
 15 17  4  0
 15 21  4  0
 16 24  1  0
 16 25  4  0
 20 24  1  0
 20 26  2  0
 21 23  4  0
 22 23  1  0
M  END
$$$$

 Created by Python create_sdf_string function

 26 28  0  0  0  0  0  0  0  0999 V2000
   12.4616    8.6700   19.4180 N   0  0  0  0  0  0  0  0  0  0  0  0
   11.8329   10.8148   18.6769 N   0  0  0  0  0  0  0  0  0  0  0  0
    6.1021    2.5564   21.0678 C   0  0  0  0  0  0  0  0  0  0  0  0
   10.9097   11.8051   18.4804 C   0  0  0  0  0  0  0  0  0  0  0  0
   11.2280   12.9135   17.5669 C   0  0  0  0  0  0  0  0  0  0  0  0
   12.3782    5.4231   20.7777 C   0  0  0  0  0  0  0  0  0  0  0  0
    7.7365    4.6508   21.6987 C   0  0  0  0  0  0  0  0  0  0  0  0
   13.0186   11.0102   18.0020 C   0  0  0  0  0  0  0  0  0  0  0  0
    8.6628    5.7088   21.8871 N   0  0  0  0  0  0  0  0  0  0  0  0
    5.6516    3.5258   21.9140 C   0  0  0  0  0  0  0  0  0  0  0  0
   11.5863    9.6815   19.4539 C   0  0  0  0  0  0  0  0  0  0  0  0
   12.9648    4.1543   20.9205 C   0  0  0  0  0  0  0  0  0  0  0  0
    8.2089    3.6265   20.8929 C   0  0  0  0  0  0  0  0  0  0  0  0
    7.3827    2.5724   20.5432 C   0  0  0  0  0  0  0  0  0  0  0  0
   11.1529    7.2750   20.8025 C   0  0  0  0  0  0  0  0  0  0  0  0
   10.2573    8.3215   20.9827 C   0  0  0  0  0  0  0  0  0  0  0  0
   11.1606    5.9378   21.2366 N   0  0  0  0  0  0  0  0  0  0  0  0
    9.8932   11.6736   19.0677 O   0  0  0  0  0  0  0  0  0  0  0  0
    6.4470    4.5850   22.2321 C   0  0  0  0  0  0  0  0  0  0  0  0
    8.4619    6.9895   22.2968 C   0  0  0  0  0  0  0  0  0  0  0  0
   12.2747    7.5102   20.0420 C   0  0  0  0  0  0  0  0  0  0  0  0
   14.2544    6.2142   19.4191 C   0  0  0  0  0  0  0  0  0  0  0  0
   13.0695    6.3705   20.0375 N   0  0  0  0  0  0  0  0  0  0  0  0
    9.1913    8.0876   21.8361 N   0  0  0  0  0  0  0  0  0  0  0  0
   10.4739    9.4813   20.2889 C   0  0  0  0  0  0  0  0  0  0  0  0
    7.5551    7.1270   23.1200 O   0  0  0  0  0  0  0  0  0  0  0  0
  1 11  4  0
  1 21  4  0
  2  4  1  0
  2  8  1  0
  2 11  1  0
  3 10  4  0
  3 14  4  0
  4  5  1  0
  4 18  2  0
  6 12  1  0
  6 17  4  0
  6 23  4  0
  7  9  1  0
  7 13  4  0
  7 19  4  0
  9 20  1  0
 10 19  4  0
 11 25  4  0
 13 14  4  0
 15 16  4  0
 15 17  4  0
 15 21  4  0
 16 24  1  0
 16 25  4  0
 20 24  1  0
 20 26  2  0
 21 23  4  0
 22 23  1  0
M  END
$$$$

 Created by Python create_sdf_string function

 26 28  0  0  0  0  0  0  0  0999 V2000
   12.4616    8.6700   19.4180 N   0  0  0  0  0  0  0  0  0  0  0  0
   11.8329   10.8148   18.6769 N   0  0  0  0  0  0  0  0  0  0  0  0
    6.1021    2.5564   21.0678 C   0  0  0  0  0  0  0  0  0  0  0  0
   10.9097   11.8051   18.4804 C   0  0  0  0  0  0  0  0  0  0  0  0
   11.2280   12.9135   17.5669 C   0  0  0  0  0  0  0  0  0  0  0  0
   12.3782    5.4231   20.7777 C   0  0  0  0  0  0  0  0  0  0  0  0
    7.7365    4.6508   21.6987 C   0  0  0  0  0  0  0  0  0  0  0  0
   13.0186   11.0102   18.0020 C   0  0  0  0  0  0  0  0  0  0  0  0
    8.6628    5.7088   21.8871 N   0  0  0  0  0  0  0  0  0  0  0  0
    5.6516    3.5258   21.9140 C   0  0  0  0  0  0  0  0  0  0  0  0
   11.5863    9.6815   19.4539 C   0  0  0  0  0  0  0  0  0  0  0  0
   12.9648    4.1543   20.9205 C   0  0  0  0  0  0  0  0  0  0  0  0
    8.2089    3.6265   20.8929 C   0  0  0  0  0  0  0  0  0  0  0  0
    7.3827    2.5724   20.5432 C   0  0  0  0  0  0  0  0  0  0  0  0
   11.1529    7.2750   20.8025 C   0  0  0  0  0  0  0  0  0  0  0  0
   10.2573    8.3215   20.9827 C   0  0  0  0  0  0  0  0  0  0  0  0
   11.1606    5.9378   21.2366 N   0  0  0  0  0  0  0  0  0  0  0  0
    9.8932   11.6736   19.0677 O   0  0  0  0  0  0  0  0  0  0  0  0
    6.4470    4.5850   22.2321 C   0  0  0  0  0  0  0  0  0  0  0  0
    8.4619    6.9895   22.2968 C   0  0  0  0  0  0  0  0  0  0  0  0
   12.2747    7.5102   20.0420 C   0  0  0  0  0  0  0  0  0  0  0  0
   14.2544    6.2142   19.4191 C   0  0  0  0  0  0  0  0  0  0  0  0
   13.0695    6.3705   20.0375 N   0  0  0  0  0  0  0  0  0  0  0  0
    9.1913    8.0876   21.8361 N   0  0  0  0  0  0  0  0  0  0  0  0
   10.4739    9.4813   20.2889 C   0  0  0  0  0  0  0  0  0  0  0  0
    7.5551    7.1270   23.1200 O   0  0  0  0  0  0  0  0  0  0  0  0
  1 11  4  0
  1 21  4  0
  2  4  1  0
  2  8  1  0
  2 11  1  0
  3 10  4  0
  3 14  4  0
  4  5  1  0
  4 18  2  0
  6 12  1  0
  6 17  4  0
  6 23  4  0
  7  9  1  0
  7 13  4  0
  7 19  4  0
  9 20  1  0
 10 19  4  0
 11 25  4  0
 13 14  4  0
 15 16  4  0
 15 17  4  0
 15 21  4  0
 16 24  1  0
 16 25  4  0
 20 24  1  0
 20 26  2  0
 21 23  4  0
 22 23  1  0
M  END
$$$$

 Created by Python create_sdf_string function

 26 28  0  0  0  0  0  0  0  0999 V2000
   12.4616    8.6700   19.4180 N   0  0  0  0  0  0  0  0  0  0  0  0
   11.8329   10.8148   18.6769 N   0  0  0  0  0  0  0  0  0  0  0  0
    6.1021    2.5564   21.0678 C   0  0  0  0  0  0  0  0  0  0  0  0
   10.9097   11.8051   18.4804 C   0  0  0  0  0  0  0  0  0  0  0  0
   11.2280   12.9135   17.5669 C   0  0  0  0  0  0  0  0  0  0  0  0
   12.3782    5.4231   20.7777 C   0  0  0  0  0  0  0  0  0  0  0  0
    7.7365    4.6508   21.6987 C   0  0  0  0  0  0  0  0  0  0  0  0
   13.0186   11.0102   18.0020 C   0  0  0  0  0  0  0  0  0  0  0  0
    8.6628    5.7088   21.8871 N   0  0  0  0  0  0  0  0  0  0  0  0
    5.6516    3.5258   21.9140 C   0  0  0  0  0  0  0  0  0  0  0  0
   11.5863    9.6815   19.4539 C   0  0  0  0  0  0  0  0  0  0  0  0
   12.9648    4.1543   20.9205 C   0  0  0  0  0  0  0  0  0  0  0  0
    8.2089    3.6265   20.8929 C   0  0  0  0  0  0  0  0  0  0  0  0
    7.3827    2.5724   20.5432 C   0  0  0  0  0  0  0  0  0  0  0  0
   11.1529    7.2750   20.8025 C   0  0  0  0  0  0  0  0  0  0  0  0
   10.2573    8.3215   20.9827 C   0  0  0  0  0  0  0  0  0  0  0  0
   11.1606    5.9378   21.2366 N   0  0  0  0  0  0  0  0  0  0  0  0
    9.8932   11.6736   19.0677 O   0  0  0  0  0  0  0  0  0  0  0  0
    6.4470    4.5850   22.2321 C   0  0  0  0  0  0  0  0  0  0  0  0
    8.4619    6.9895   22.2968 C   0  0  0  0  0  0  0  0  0  0  0  0
   12.2747    7.5102   20.0420 C   0  0  0  0  0  0  0  0  0  0  0  0
   14.2544    6.2142   19.4191 C   0  0  0  0  0  0  0  0  0  0  0  0
   13.0695    6.3705   20.0375 N   0  0  0  0  0  0  0  0  0  0  0  0
    9.1913    8.0876   21.8361 N   0  0  0  0  0  0  0  0  0  0  0  0
   10.4739    9.4813   20.2889 C   0  0  0  0  0  0  0  0  0  0  0  0
    7.5551    7.1270   23.1200 O   0  0  0  0  0  0  0  0  0  0  0  0
  1 11  4  0
  1 21  4  0
  2  4  1  0
  2  8  1  0
  2 11  1  0
  3 10  4  0
  3 14  4  0
  4  5  1  0
  4 18  2  0
  6 12  1  0
  6 17  4  0
  6 23  4  0
  7  9  1  0
  7 13  4  0
  7 19  4  0
  9 20  1  0
 10 19  4  0
 11 25  4  0
 13 14  4  0
 15 16  4  0
 15 17  4  0
 15 21  4  0
 16 24  1  0
 16 25  4  0
 20 24  1  0
 20 26  2  0
 21 23  4  0
 22 23  1  0
M  END
$$$$

 Created by Python create_sdf_string function

 26 28  0  0  0  0  0  0  0  0999 V2000
   12.4616    8.6700   19.4180 N   0  0  0  0  0  0  0  0  0  0  0  0
   11.8329   10.8148   18.6769 N   0  0  0  0  0  0  0  0  0  0  0  0
    6.1021    2.5564   21.0678 C   0  0  0  0  0  0  0  0  0  0  0  0
   10.9097   11.8051   18.4804 C   0  0  0  0  0  0  0  0  0  0  0  0
   11.2280   12.9135   17.5669 C   0  0  0  0  0  0  0  0  0  0  0  0
   12.3782    5.4231   20.7777 C   0  0  0  0  0  0  0  0  0  0  0  0
    7.7365    4.6508   21.6987 C   0  0  0  0  0  0  0  0  0  0  0  0
   13.0186   11.0102   18.0020 C   0  0  0  0  0  0  0  0  0  0  0  0
    8.6628    5.7088   21.8871 N   0  0  0  0  0  0  0  0  0  0  0  0
    5.6516    3.5258   21.9140 C   0  0  0  0  0  0  0  0  0  0  0  0
   11.5863    9.6815   19.4539 C   0  0  0  0  0  0  0  0  0  0  0  0
   12.9648    4.1543   20.9205 C   0  0  0  0  0  0  0  0  0  0  0  0
    8.2089    3.6265   20.8929 C   0  0  0  0  0  0  0  0  0  0  0  0
    7.3827    2.5724   20.5432 C   0  0  0  0  0  0  0  0  0  0  0  0
   11.1529    7.2750   20.8025 C   0  0  0  0  0  0  0  0  0  0  0  0
   10.2573    8.3215   20.9827 C   0  0  0  0  0  0  0  0  0  0  0  0
   11.1606    5.9378   21.2366 N   0  0  0  0  0  0  0  0  0  0  0  0
    9.8932   11.6736   19.0677 O   0  0  0  0  0  0  0  0  0  0  0  0
    6.4470    4.5850   22.2321 C   0  0  0  0  0  0  0  0  0  0  0  0
    8.4619    6.9895   22.2968 C   0  0  0  0  0  0  0  0  0  0  0  0
   12.2747    7.5102   20.0420 C   0  0  0  0  0  0  0  0  0  0  0  0
   14.2544    6.2142   19.4191 C   0  0  0  0  0  0  0  0  0  0  0  0
   13.0695    6.3705   20.0375 N   0  0  0  0  0  0  0  0  0  0  0  0
    9.1913    8.0876   21.8361 N   0  0  0  0  0  0  0  0  0  0  0  0
   10.4739    9.4813   20.2889 C   0  0  0  0  0  0  0  0  0  0  0  0
    7.5551    7.1270   23.1200 O   0  0  0  0  0  0  0  0  0  0  0  0
  1 11  4  0
  1 21  4  0
  2  4  1  0
  2  8  1  0
  2 11  1  0
  3 10  4  0
  3 14  4  0
  4  5  1  0
  4 18  2  0
  6 12  1  0
  6 17  4  0
  6 23  4  0
  7  9  1  0
  7 13  4  0
  7 19  4  0
  9 20  1  0
 10 19  4  0
 11 25  4  0
 13 14  4  0
 15 16  4  0
 15 17  4  0
 15 21  4  0
 16 24  1  0
 16 25  4  0
 20 24  1  0
 20 26  2  0
 21 23  4  0
 22 23  1  0
M  END
$$$$

 Created by Python create_sdf_string function

 26 28  0  0  0  0  0  0  0  0999 V2000
   12.4616    8.6700   19.4180 N   0  0  0  0  0  0  0  0  0  0  0  0
   11.8329   10.8148   18.6769 N   0  0  0  0  0  0  0  0  0  0  0  0
    6.1021    2.5564   21.0678 C   0  0  0  0  0  0  0  0  0  0  0  0
   10.9097   11.8051   18.4804 C   0  0  0  0  0  0  0  0  0  0  0  0
   11.2280   12.9135   17.5669 C   0  0  0  0  0  0  0  0  0  0  0  0
   12.3782    5.4231   20.7777 C   0  0  0  0  0  0  0  0  0  0  0  0
    7.7365    4.6508   21.6987 C   0  0  0  0  0  0  0  0  0  0  0  0
   13.0186   11.0102   18.0020 C   0  0  0  0  0  0  0  0  0  0  0  0
    8.6628    5.7088   21.8871 N   0  0  0  0  0  0  0  0  0  0  0  0
    5.6516    3.5258   21.9140 C   0  0  0  0  0  0  0  0  0  0  0  0
   11.5863    9.6815   19.4539 C   0  0  0  0  0  0  0  0  0  0  0  0
   12.9648    4.1543   20.9205 C   0  0  0  0  0  0  0  0  0  0  0  0
    8.2089    3.6265   20.8929 C   0  0  0  0  0  0  0  0  0  0  0  0
    7.3827    2.5724   20.5432 C   0  0  0  0  0  0  0  0  0  0  0  0
   11.1529    7.2750   20.8025 C   0  0  0  0  0  0  0  0  0  0  0  0
   10.2573    8.3215   20.9827 C   0  0  0  0  0  0  0  0  0  0  0  0
   11.1606    5.9378   21.2366 N   0  0  0  0  0  0  0  0  0  0  0  0
    9.8932   11.6736   19.0677 O   0  0  0  0  0  0  0  0  0  0  0  0
    6.4470    4.5850   22.2321 C   0  0  0  0  0  0  0  0  0  0  0  0
    8.4619    6.9895   22.2968 C   0  0  0  0  0  0  0  0  0  0  0  0
   12.2747    7.5102   20.0420 C   0  0  0  0  0  0  0  0  0  0  0  0
   14.2544    6.2142   19.4191 C   0  0  0  0  0  0  0  0  0  0  0  0
   13.0695    6.3705   20.0375 N   0  0  0  0  0  0  0  0  0  0  0  0
    9.1913    8.0876   21.8361 N   0  0  0  0  0  0  0  0  0  0  0  0
   10.4739    9.4813   20.2889 C   0  0  0  0  0  0  0  0  0  0  0  0
    7.5551    7.1270   23.1200 O   0  0  0  0  0  0  0  0  0  0  0  0
  1 11  4  0
  1 21  4  0
  2  4  1  0
  2  8  1  0
  2 11  1  0
  3 10  4  0
  3 14  4  0
  4  5  1  0
  4 18  2  0
  6 12  1  0
  6 17  4  0
  6 23  4  0
  7  9  1  0
  7 13  4  0
  7 19  4  0
  9 20  1  0
 10 19  4  0
 11 25  4  0
 13 14  4  0
 15 16  4  0
 15 17  4  0
 15 21  4  0
 16 24  1  0
 16 25  4  0
 20 24  1  0
 20 26  2  0
 21 23  4  0
 22 23  1  0
M  END
$$$$

 Created by Python create_sdf_string function

 26 28  0  0  0  0  0  0  0  0999 V2000
   12.4616    8.6700   19.4180 N   0  0  0  0  0  0  0  0  0  0  0  0
   11.8329   10.8148   18.6769 N   0  0  0  0  0  0  0  0  0  0  0  0
    6.1021    2.5564   21.0678 C   0  0  0  0  0  0  0  0  0  0  0  0
   10.9097   11.8051   18.4804 C   0  0  0  0  0  0  0  0  0  0  0  0
   11.2280   12.9135   17.5669 C   0  0  0  0  0  0  0  0  0  0  0  0
   12.3782    5.4231   20.7777 C   0  0  0  0  0  0  0  0  0  0  0  0
    7.7365    4.6508   21.6987 C   0  0  0  0  0  0  0  0  0  0  0  0
   13.0186   11.0102   18.0020 C   0  0  0  0  0  0  0  0  0  0  0  0
    8.6628    5.7088   21.8871 N   0  0  0  0  0  0  0  0  0  0  0  0
    5.6516    3.5258   21.9140 C   0  0  0  0  0  0  0  0  0  0  0  0
   11.5863    9.6815   19.4539 C   0  0  0  0  0  0  0  0  0  0  0  0
   12.9648    4.1543   20.9205 C   0  0  0  0  0  0  0  0  0  0  0  0
    8.2089    3.6265   20.8929 C   0  0  0  0  0  0  0  0  0  0  0  0
    7.3827    2.5724   20.5432 C   0  0  0  0  0  0  0  0  0  0  0  0
   11.1529    7.2750   20.8025 C   0  0  0  0  0  0  0  0  0  0  0  0
   10.2573    8.3215   20.9827 C   0  0  0  0  0  0  0  0  0  0  0  0
   11.1606    5.9378   21.2366 N   0  0  0  0  0  0  0  0  0  0  0  0
    9.8932   11.6736   19.0677 O   0  0  0  0  0  0  0  0  0  0  0  0
    6.4470    4.5850   22.2321 C   0  0  0  0  0  0  0  0  0  0  0  0
    8.4619    6.9895   22.2968 C   0  0  0  0  0  0  0  0  0  0  0  0
   12.2747    7.5102   20.0420 C   0  0  0  0  0  0  0  0  0  0  0  0
   14.2544    6.2142   19.4191 C   0  0  0  0  0  0  0  0  0  0  0  0
   13.0695    6.3705   20.0375 N   0  0  0  0  0  0  0  0  0  0  0  0
    9.1913    8.0876   21.8361 N   0  0  0  0  0  0  0  0  0  0  0  0
   10.4739    9.4813   20.2889 C   0  0  0  0  0  0  0  0  0  0  0  0
    7.5551    7.1270   23.1200 O   0  0  0  0  0  0  0  0  0  0  0  0
  1 11  4  0
  1 21  4  0
  2  4  1  0
  2  8  1  0
  2 11  1  0
  3 10  4  0
  3 14  4  0
  4  5  1  0
  4 18  2  0
  6 12  1  0
  6 17  4  0
  6 23  4  0
  7  9  1  0
  7 13  4  0
  7 19  4  0
  9 20  1  0
 10 19  4  0
 11 25  4  0
 13 14  4  0
 15 16  4  0
 15 17  4  0
 15 21  4  0
 16 24  1  0
 16 25  4  0
 20 24  1  0
 20 26  2  0
 21 23  4  0
 22 23  1  0
M  END
$$$$

 Created by Python create_sdf_string function

 26 28  0  0  0  0  0  0  0  0999 V2000
   12.4616    8.6700   19.4180 N   0  0  0  0  0  0  0  0  0  0  0  0
   11.8329   10.8148   18.6769 N   0  0  0  0  0  0  0  0  0  0  0  0
    6.1021    2.5564   21.0678 C   0  0  0  0  0  0  0  0  0  0  0  0
   10.9097   11.8051   18.4804 C   0  0  0  0  0  0  0  0  0  0  0  0
   11.2280   12.9135   17.5669 C   0  0  0  0  0  0  0  0  0  0  0  0
   12.3782    5.4231   20.7777 C   0  0  0  0  0  0  0  0  0  0  0  0
    7.7365    4.6508   21.6987 C   0  0  0  0  0  0  0  0  0  0  0  0
   13.0186   11.0102   18.0020 C   0  0  0  0  0  0  0  0  0  0  0  0
    8.6628    5.7088   21.8871 N   0  0  0  0  0  0  0  0  0  0  0  0
    5.6516    3.5258   21.9140 C   0  0  0  0  0  0  0  0  0  0  0  0
   11.5863    9.6815   19.4539 C   0  0  0  0  0  0  0  0  0  0  0  0
   12.9648    4.1543   20.9205 C   0  0  0  0  0  0  0  0  0  0  0  0
    8.2089    3.6265   20.8929 C   0  0  0  0  0  0  0  0  0  0  0  0
    7.3827    2.5724   20.5432 C   0  0  0  0  0  0  0  0  0  0  0  0
   11.1529    7.2750   20.8025 C   0  0  0  0  0  0  0  0  0  0  0  0
   10.2573    8.3215   20.9827 C   0  0  0  0  0  0  0  0  0  0  0  0
   11.1606    5.9378   21.2366 N   0  0  0  0  0  0  0  0  0  0  0  0
    9.8932   11.6736   19.0677 O   0  0  0  0  0  0  0  0  0  0  0  0
    6.4470    4.5850   22.2321 C   0  0  0  0  0  0  0  0  0  0  0  0
    8.4619    6.9895   22.2968 C   0  0  0  0  0  0  0  0  0  0  0  0
   12.2747    7.5102   20.0420 C   0  0  0  0  0  0  0  0  0  0  0  0
   14.2544    6.2142   19.4191 C   0  0  0  0  0  0  0  0  0  0  0  0
   13.0695    6.3705   20.0375 N   0  0  0  0  0  0  0  0  0  0  0  0
    9.1913    8.0876   21.8361 N   0  0  0  0  0  0  0  0  0  0  0  0
   10.4739    9.4813   20.2889 C   0  0  0  0  0  0  0  0  0  0  0  0
    7.5551    7.1270   23.1200 O   0  0  0  0  0  0  0  0  0  0  0  0
  1 11  4  0
  1 21  4  0
  2  4  1  0
  2  8  1  0
  2 11  1  0
  3 10  4  0
  3 14  4  0
  4  5  1  0
  4 18  2  0
  6 12  1  0
  6 17  4  0
  6 23  4  0
  7  9  1  0
  7 13  4  0
  7 19  4  0
  9 20  1  0
 10 19  4  0
 11 25  4  0
 13 14  4  0
 15 16  4  0
 15 17  4  0
 15 21  4  0
 16 24  1  0
 16 25  4  0
 20 24  1  0
 20 26  2  0
 21 23  4  0
 22 23  1  0
M  END
$$$$

 Created by Python create_sdf_string function

 26 28  0  0  0  0  0  0  0  0999 V2000
   12.4616    8.6700   19.4180 N   0  0  0  0  0  0  0  0  0  0  0  0
   11.8329   10.8148   18.6769 N   0  0  0  0  0  0  0  0  0  0  0  0
    6.1021    2.5564   21.0678 C   0  0  0  0  0  0  0  0  0  0  0  0
   10.9097   11.8051   18.4804 C   0  0  0  0  0  0  0  0  0  0  0  0
   11.2280   12.9135   17.5669 C   0  0  0  0  0  0  0  0  0  0  0  0
   12.3782    5.4231   20.7777 C   0  0  0  0  0  0  0  0  0  0  0  0
    7.7365    4.6508   21.6987 C   0  0  0  0  0  0  0  0  0  0  0  0
   13.0186   11.0102   18.0020 C   0  0  0  0  0  0  0  0  0  0  0  0
    8.6628    5.7088   21.8871 N   0  0  0  0  0  0  0  0  0  0  0  0
    5.6516    3.5258   21.9140 C   0  0  0  0  0  0  0  0  0  0  0  0
   11.5863    9.6815   19.4539 C   0  0  0  0  0  0  0  0  0  0  0  0
   12.9648    4.1543   20.9205 C   0  0  0  0  0  0  0  0  0  0  0  0
    8.2089    3.6265   20.8929 C   0  0  0  0  0  0  0  0  0  0  0  0
    7.3827    2.5724   20.5432 C   0  0  0  0  0  0  0  0  0  0  0  0
   11.1529    7.2750   20.8025 C   0  0  0  0  0  0  0  0  0  0  0  0
   10.2573    8.3215   20.9827 C   0  0  0  0  0  0  0  0  0  0  0  0
   11.1606    5.9378   21.2366 N   0  0  0  0  0  0  0  0  0  0  0  0
    9.8932   11.6736   19.0677 O   0  0  0  0  0  0  0  0  0  0  0  0
    6.4470    4.5850   22.2321 C   0  0  0  0  0  0  0  0  0  0  0  0
    8.4619    6.9895   22.2968 C   0  0  0  0  0  0  0  0  0  0  0  0
   12.2747    7.5102   20.0420 C   0  0  0  0  0  0  0  0  0  0  0  0
   14.2544    6.2142   19.4191 C   0  0  0  0  0  0  0  0  0  0  0  0
   13.0695    6.3705   20.0375 N   0  0  0  0  0  0  0  0  0  0  0  0
    9.1913    8.0876   21.8361 N   0  0  0  0  0  0  0  0  0  0  0  0
   10.4739    9.4813   20.2889 C   0  0  0  0  0  0  0  0  0  0  0  0
    7.5551    7.1270   23.1200 O   0  0  0  0  0  0  0  0  0  0  0  0
  1 11  4  0
  1 21  4  0
  2  4  1  0
  2  8  1  0
  2 11  1  0
  3 10  4  0
  3 14  4  0
  4  5  1  0
  4 18  2  0
  6 12  1  0
  6 17  4  0
  6 23  4  0
  7  9  1  0
  7 13  4  0
  7 19  4  0
  9 20  1  0
 10 19  4  0
 11 25  4  0
 13 14  4  0
 15 16  4  0
 15 17  4  0
 15 21  4  0
 16 24  1  0
 16 25  4  0
 20 24  1  0
 20 26  2  0
 21 23  4  0
 22 23  1  0
M  END
$$$$

 Created by Python create_sdf_string function

 26 28  0  0  0  0  0  0  0  0999 V2000
   12.4616    8.6700   19.4180 N   0  0  0  0  0  0  0  0  0  0  0  0
   11.8329   10.8148   18.6769 N   0  0  0  0  0  0  0  0  0  0  0  0
    6.1021    2.5564   21.0678 C   0  0  0  0  0  0  0  0  0  0  0  0
   10.9097   11.8051   18.4804 C   0  0  0  0  0  0  0  0  0  0  0  0
   11.2280   12.9135   17.5669 C   0  0  0  0  0  0  0  0  0  0  0  0
   12.3782    5.4231   20.7777 C   0  0  0  0  0  0  0  0  0  0  0  0
    7.7365    4.6508   21.6987 C   0  0  0  0  0  0  0  0  0  0  0  0
   13.0186   11.0102   18.0020 C   0  0  0  0  0  0  0  0  0  0  0  0
    8.6628    5.7088   21.8871 N   0  0  0  0  0  0  0  0  0  0  0  0
    5.6516    3.5258   21.9140 C   0  0  0  0  0  0  0  0  0  0  0  0
   11.5863    9.6815   19.4539 C   0  0  0  0  0  0  0  0  0  0  0  0
   12.9648    4.1543   20.9205 C   0  0  0  0  0  0  0  0  0  0  0  0
    8.2089    3.6265   20.8929 C   0  0  0  0  0  0  0  0  0  0  0  0
    7.3827    2.5724   20.5432 C   0  0  0  0  0  0  0  0  0  0  0  0
   11.1529    7.2750   20.8025 C   0  0  0  0  0  0  0  0  0  0  0  0
   10.2573    8.3215   20.9827 C   0  0  0  0  0  0  0  0  0  0  0  0
   11.1606    5.9378   21.2366 N   0  0  0  0  0  0  0  0  0  0  0  0
    9.8932   11.6736   19.0677 O   0  0  0  0  0  0  0  0  0  0  0  0
    6.4470    4.5850   22.2321 C   0  0  0  0  0  0  0  0  0  0  0  0
    8.4619    6.9895   22.2968 C   0  0  0  0  0  0  0  0  0  0  0  0
   12.2747    7.5102   20.0420 C   0  0  0  0  0  0  0  0  0  0  0  0
   14.2544    6.2142   19.4191 C   0  0  0  0  0  0  0  0  0  0  0  0
   13.0695    6.3705   20.0375 N   0  0  0  0  0  0  0  0  0  0  0  0
    9.1913    8.0876   21.8361 N   0  0  0  0  0  0  0  0  0  0  0  0
   10.4739    9.4813   20.2889 C   0  0  0  0  0  0  0  0  0  0  0  0
    7.5551    7.1270   23.1200 O   0  0  0  0  0  0  0  0  0  0  0  0
  1 11  4  0
  1 21  4  0
  2  4  1  0
  2  8  1  0
  2 11  1  0
  3 10  4  0
  3 14  4  0
  4  5  1  0
  4 18  2  0
  6 12  1  0
  6 17  4  0
  6 23  4  0
  7  9  1  0
  7 13  4  0
  7 19  4  0
  9 20  1  0
 10 19  4  0
 11 25  4  0
 13 14  4  0
 15 16  4  0
 15 17  4  0
 15 21  4  0
 16 24  1  0
 16 25  4  0
 20 24  1  0
 20 26  2  0
 21 23  4  0
 22 23  1  0
M  END
$$$$

 Created by Python create_sdf_string function

 26 28  0  0  0  0  0  0  0  0999 V2000
   12.4616    8.6700   19.4180 N   0  0  0  0  0  0  0  0  0  0  0  0
   11.8329   10.8148   18.6769 N   0  0  0  0  0  0  0  0  0  0  0  0
    6.1021    2.5564   21.0678 C   0  0  0  0  0  0  0  0  0  0  0  0
   10.9097   11.8051   18.4804 C   0  0  0  0  0  0  0  0  0  0  0  0
   11.2280   12.9135   17.5669 C   0  0  0  0  0  0  0  0  0  0  0  0
   12.3782    5.4231   20.7777 C   0  0  0  0  0  0  0  0  0  0  0  0
    7.7365    4.6508   21.6987 C   0  0  0  0  0  0  0  0  0  0  0  0
   13.0186   11.0102   18.0020 C   0  0  0  0  0  0  0  0  0  0  0  0
    8.6628    5.7088   21.8871 N   0  0  0  0  0  0  0  0  0  0  0  0
    5.6516    3.5258   21.9140 C   0  0  0  0  0  0  0  0  0  0  0  0
   11.5863    9.6815   19.4539 C   0  0  0  0  0  0  0  0  0  0  0  0
   12.9648    4.1543   20.9205 C   0  0  0  0  0  0  0  0  0  0  0  0
    8.2089    3.6265   20.8929 C   0  0  0  0  0  0  0  0  0  0  0  0
    7.3827    2.5724   20.5432 C   0  0  0  0  0  0  0  0  0  0  0  0
   11.1529    7.2750   20.8025 C   0  0  0  0  0  0  0  0  0  0  0  0
   10.2573    8.3215   20.9827 C   0  0  0  0  0  0  0  0  0  0  0  0
   11.1606    5.9378   21.2366 N   0  0  0  0  0  0  0  0  0  0  0  0
    9.8932   11.6736   19.0677 O   0  0  0  0  0  0  0  0  0  0  0  0
    6.4470    4.5850   22.2321 C   0  0  0  0  0  0  0  0  0  0  0  0
    8.4619    6.9895   22.2968 C   0  0  0  0  0  0  0  0  0  0  0  0
   12.2747    7.5102   20.0420 C   0  0  0  0  0  0  0  0  0  0  0  0
   14.2544    6.2142   19.4191 C   0  0  0  0  0  0  0  0  0  0  0  0
   13.0695    6.3705   20.0375 N   0  0  0  0  0  0  0  0  0  0  0  0
    9.1913    8.0876   21.8361 N   0  0  0  0  0  0  0  0  0  0  0  0
   10.4739    9.4813   20.2889 C   0  0  0  0  0  0  0  0  0  0  0  0
    7.5551    7.1270   23.1200 O   0  0  0  0  0  0  0  0  0  0  0  0
  1 11  4  0
  1 21  4  0
  2  4  1  0
  2  8  1  0
  2 11  1  0
  3 10  4  0
  3 14  4  0
  4  5  1  0
  4 18  2  0
  6 12  1  0
  6 17  4  0
  6 23  4  0
  7  9  1  0
  7 13  4  0
  7 19  4  0
  9 20  1  0
 10 19  4  0
 11 25  4  0
 13 14  4  0
 15 16  4  0
 15 17  4  0
 15 21  4  0
 16 24  1  0
 16 25  4  0
 20 24  1  0
 20 26  2  0
 21 23  4  0
 22 23  1  0
M  END
$$$$

 Created by Python create_sdf_string function

 26 28  0  0  0  0  0  0  0  0999 V2000
   12.4616    8.6700   19.4180 N   0  0  0  0  0  0  0  0  0  0  0  0
   11.8329   10.8148   18.6769 N   0  0  0  0  0  0  0  0  0  0  0  0
    6.1021    2.5564   21.0678 C   0  0  0  0  0  0  0  0  0  0  0  0
   10.9097   11.8051   18.4804 C   0  0  0  0  0  0  0  0  0  0  0  0
   11.2280   12.9135   17.5669 C   0  0  0  0  0  0  0  0  0  0  0  0
   12.3782    5.4231   20.7777 C   0  0  0  0  0  0  0  0  0  0  0  0
    7.7365    4.6508   21.6987 C   0  0  0  0  0  0  0  0  0  0  0  0
   13.0186   11.0102   18.0020 C   0  0  0  0  0  0  0  0  0  0  0  0
    8.6628    5.7088   21.8871 N   0  0  0  0  0  0  0  0  0  0  0  0
    5.6516    3.5258   21.9140 C   0  0  0  0  0  0  0  0  0  0  0  0
   11.5863    9.6815   19.4539 C   0  0  0  0  0  0  0  0  0  0  0  0
   12.9648    4.1543   20.9205 C   0  0  0  0  0  0  0  0  0  0  0  0
    8.2089    3.6265   20.8929 C   0  0  0  0  0  0  0  0  0  0  0  0
    7.3827    2.5724   20.5432 C   0  0  0  0  0  0  0  0  0  0  0  0
   11.1529    7.2750   20.8025 C   0  0  0  0  0  0  0  0  0  0  0  0
   10.2573    8.3215   20.9827 C   0  0  0  0  0  0  0  0  0  0  0  0
   11.1606    5.9378   21.2366 N   0  0  0  0  0  0  0  0  0  0  0  0
    9.8932   11.6736   19.0677 O   0  0  0  0  0  0  0  0  0  0  0  0
    6.4470    4.5850   22.2321 C   0  0  0  0  0  0  0  0  0  0  0  0
    8.4619    6.9895   22.2968 C   0  0  0  0  0  0  0  0  0  0  0  0
   12.2747    7.5102   20.0420 C   0  0  0  0  0  0  0  0  0  0  0  0
   14.2544    6.2142   19.4191 C   0  0  0  0  0  0  0  0  0  0  0  0
   13.0695    6.3705   20.0375 N   0  0  0  0  0  0  0  0  0  0  0  0
    9.1913    8.0876   21.8361 N   0  0  0  0  0  0  0  0  0  0  0  0
   10.4739    9.4813   20.2889 C   0  0  0  0  0  0  0  0  0  0  0  0
    7.5551    7.1270   23.1200 O   0  0  0  0  0  0  0  0  0  0  0  0
  1 11  4  0
  1 21  4  0
  2  4  1  0
  2  8  1  0
  2 11  1  0
  3 10  4  0
  3 14  4  0
  4  5  1  0
  4 18  2  0
  6 12  1  0
  6 17  4  0
  6 23  4  0
  7  9  1  0
  7 13  4  0
  7 19  4  0
  9 20  1  0
 10 19  4  0
 11 25  4  0
 13 14  4  0
 15 16  4  0
 15 17  4  0
 15 21  4  0
 16 24  1  0
 16 25  4  0
 20 24  1  0
 20 26  2  0
 21 23  4  0
 22 23  1  0
M  END
$$$$

 Created by Python create_sdf_string function

 26 28  0  0  0  0  0  0  0  0999 V2000
   12.4616    8.6700   19.4180 N   0  0  0  0  0  0  0  0  0  0  0  0
   11.8329   10.8148   18.6769 N   0  0  0  0  0  0  0  0  0  0  0  0
    6.1021    2.5564   21.0678 C   0  0  0  0  0  0  0  0  0  0  0  0
   10.9097   11.8051   18.4804 C   0  0  0  0  0  0  0  0  0  0  0  0
   11.2280   12.9135   17.5669 C   0  0  0  0  0  0  0  0  0  0  0  0
   12.3782    5.4231   20.7777 C   0  0  0  0  0  0  0  0  0  0  0  0
    7.7365    4.6508   21.6987 C   0  0  0  0  0  0  0  0  0  0  0  0
   13.0186   11.0102   18.0020 C   0  0  0  0  0  0  0  0  0  0  0  0
    8.6628    5.7088   21.8871 N   0  0  0  0  0  0  0  0  0  0  0  0
    5.6516    3.5258   21.9140 C   0  0  0  0  0  0  0  0  0  0  0  0
   11.5863    9.6815   19.4539 C   0  0  0  0  0  0  0  0  0  0  0  0
   12.9648    4.1543   20.9205 C   0  0  0  0  0  0  0  0  0  0  0  0
    8.2089    3.6265   20.8929 C   0  0  0  0  0  0  0  0  0  0  0  0
    7.3827    2.5724   20.5432 C   0  0  0  0  0  0  0  0  0  0  0  0
   11.1529    7.2750   20.8025 C   0  0  0  0  0  0  0  0  0  0  0  0
   10.2573    8.3215   20.9827 C   0  0  0  0  0  0  0  0  0  0  0  0
   11.1606    5.9378   21.2366 N   0  0  0  0  0  0  0  0  0  0  0  0
    9.8932   11.6736   19.0677 O   0  0  0  0  0  0  0  0  0  0  0  0
    6.4470    4.5850   22.2321 C   0  0  0  0  0  0  0  0  0  0  0  0
    8.4619    6.9895   22.2968 C   0  0  0  0  0  0  0  0  0  0  0  0
   12.2747    7.5102   20.0420 C   0  0  0  0  0  0  0  0  0  0  0  0
   14.2544    6.2142   19.4191 C   0  0  0  0  0  0  0  0  0  0  0  0
   13.0695    6.3705   20.0375 N   0  0  0  0  0  0  0  0  0  0  0  0
    9.1913    8.0876   21.8361 N   0  0  0  0  0  0  0  0  0  0  0  0
   10.4739    9.4813   20.2889 C   0  0  0  0  0  0  0  0  0  0  0  0
    7.5551    7.1270   23.1200 O   0  0  0  0  0  0  0  0  0  0  0  0
  1 11  4  0
  1 21  4  0
  2  4  1  0
  2  8  1  0
  2 11  1  0
  3 10  4  0
  3 14  4  0
  4  5  1  0
  4 18  2  0
  6 12  1  0
  6 17  4  0
  6 23  4  0
  7  9  1  0
  7 13  4  0
  7 19  4  0
  9 20  1  0
 10 19  4  0
 11 25  4  0
 13 14  4  0
 15 16  4  0
 15 17  4  0
 15 21  4  0
 16 24  1  0
 16 25  4  0
 20 24  1  0
 20 26  2  0
 21 23  4  0
 22 23  1  0
M  END
$$$$

 Created by Python create_sdf_string function

 26 28  0  0  0  0  0  0  0  0999 V2000
   12.4616    8.6700   19.4180 N   0  0  0  0  0  0  0  0  0  0  0  0
   11.8329   10.8148   18.6769 N   0  0  0  0  0  0  0  0  0  0  0  0
    6.1021    2.5564   21.0678 C   0  0  0  0  0  0  0  0  0  0  0  0
   10.9097   11.8051   18.4804 C   0  0  0  0  0  0  0  0  0  0  0  0
   11.2280   12.9135   17.5669 C   0  0  0  0  0  0  0  0  0  0  0  0
   12.3782    5.4231   20.7777 C   0  0  0  0  0  0  0  0  0  0  0  0
    7.7365    4.6508   21.6987 C   0  0  0  0  0  0  0  0  0  0  0  0
   13.0186   11.0102   18.0020 C   0  0  0  0  0  0  0  0  0  0  0  0
    8.6628    5.7088   21.8871 N   0  0  0  0  0  0  0  0  0  0  0  0
    5.6516    3.5258   21.9140 C   0  0  0  0  0  0  0  0  0  0  0  0
   11.5863    9.6815   19.4539 C   0  0  0  0  0  0  0  0  0  0  0  0
   12.9648    4.1543   20.9205 C   0  0  0  0  0  0  0  0  0  0  0  0
    8.2089    3.6265   20.8929 C   0  0  0  0  0  0  0  0  0  0  0  0
    7.3827    2.5724   20.5432 C   0  0  0  0  0  0  0  0  0  0  0  0
   11.1529    7.2750   20.8025 C   0  0  0  0  0  0  0  0  0  0  0  0
   10.2573    8.3215   20.9827 C   0  0  0  0  0  0  0  0  0  0  0  0
   11.1606    5.9378   21.2366 N   0  0  0  0  0  0  0  0  0  0  0  0
    9.8932   11.6736   19.0677 O   0  0  0  0  0  0  0  0  0  0  0  0
    6.4470    4.5850   22.2321 C   0  0  0  0  0  0  0  0  0  0  0  0
    8.4619    6.9895   22.2968 C   0  0  0  0  0  0  0  0  0  0  0  0
   12.2747    7.5102   20.0420 C   0  0  0  0  0  0  0  0  0  0  0  0
   14.2544    6.2142   19.4191 C   0  0  0  0  0  0  0  0  0  0  0  0
   13.0695    6.3705   20.0375 N   0  0  0  0  0  0  0  0  0  0  0  0
    9.1913    8.0876   21.8361 N   0  0  0  0  0  0  0  0  0  0  0  0
   10.4739    9.4813   20.2889 C   0  0  0  0  0  0  0  0  0  0  0  0
    7.5551    7.1270   23.1200 O   0  0  0  0  0  0  0  0  0  0  0  0
  1 11  4  0
  1 21  4  0
  2  4  1  0
  2  8  1  0
  2 11  1  0
  3 10  4  0
  3 14  4  0
  4  5  1  0
  4 18  2  0
  6 12  1  0
  6 17  4  0
  6 23  4  0
  7  9  1  0
  7 13  4  0
  7 19  4  0
  9 20  1  0
 10 19  4  0
 11 25  4  0
 13 14  4  0
 15 16  4  0
 15 17  4  0
 15 21  4  0
 16 24  1  0
 16 25  4  0
 20 24  1  0
 20 26  2  0
 21 23  4  0
 22 23  1  0
M  END
$$$$

 Created by Python create_sdf_string function

 26 28  0  0  0  0  0  0  0  0999 V2000
   12.4616    8.6700   19.4180 N   0  0  0  0  0  0  0  0  0  0  0  0
   11.8329   10.8148   18.6769 N   0  0  0  0  0  0  0  0  0  0  0  0
    6.1021    2.5564   21.0678 C   0  0  0  0  0  0  0  0  0  0  0  0
   10.9097   11.8051   18.4804 C   0  0  0  0  0  0  0  0  0  0  0  0
   11.2280   12.9135   17.5669 C   0  0  0  0  0  0  0  0  0  0  0  0
   12.3782    5.4231   20.7777 C   0  0  0  0  0  0  0  0  0  0  0  0
    7.7365    4.6508   21.6987 C   0  0  0  0  0  0  0  0  0  0  0  0
   13.0186   11.0102   18.0020 C   0  0  0  0  0  0  0  0  0  0  0  0
    8.6628    5.7088   21.8871 N   0  0  0  0  0  0  0  0  0  0  0  0
    5.6516    3.5258   21.9140 C   0  0  0  0  0  0  0  0  0  0  0  0
   11.5863    9.6815   19.4539 C   0  0  0  0  0  0  0  0  0  0  0  0
   12.9648    4.1543   20.9205 C   0  0  0  0  0  0  0  0  0  0  0  0
    8.2089    3.6265   20.8929 C   0  0  0  0  0  0  0  0  0  0  0  0
    7.3827    2.5724   20.5432 C   0  0  0  0  0  0  0  0  0  0  0  0
   11.1529    7.2750   20.8025 C   0  0  0  0  0  0  0  0  0  0  0  0
   10.2573    8.3215   20.9827 C   0  0  0  0  0  0  0  0  0  0  0  0
   11.1606    5.9378   21.2366 N   0  0  0  0  0  0  0  0  0  0  0  0
    9.8932   11.6736   19.0677 O   0  0  0  0  0  0  0  0  0  0  0  0
    6.4470    4.5850   22.2321 C   0  0  0  0  0  0  0  0  0  0  0  0
    8.4619    6.9895   22.2968 C   0  0  0  0  0  0  0  0  0  0  0  0
   12.2747    7.5102   20.0420 C   0  0  0  0  0  0  0  0  0  0  0  0
   14.2544    6.2142   19.4191 C   0  0  0  0  0  0  0  0  0  0  0  0
   13.0695    6.3705   20.0375 N   0  0  0  0  0  0  0  0  0  0  0  0
    9.1913    8.0876   21.8361 N   0  0  0  0  0  0  0  0  0  0  0  0
   10.4739    9.4813   20.2889 C   0  0  0  0  0  0  0  0  0  0  0  0
    7.5551    7.1270   23.1200 O   0  0  0  0  0  0  0  0  0  0  0  0
  1 11  4  0
  1 21  4  0
  2  4  1  0
  2  8  1  0
  2 11  1  0
  3 10  4  0
  3 14  4  0
  4  5  1  0
  4 18  2  0
  6 12  1  0
  6 17  4  0
  6 23  4  0
  7  9  1  0
  7 13  4  0
  7 19  4  0
  9 20  1  0
 10 19  4  0
 11 25  4  0
 13 14  4  0
 15 16  4  0
 15 17  4  0
 15 21  4  0
 16 24  1  0
 16 25  4  0
 20 24  1  0
 20 26  2  0
 21 23  4  0
 22 23  1  0
M  END
$$$$

 Created by Python create_sdf_string function

 26 28  0  0  0  0  0  0  0  0999 V2000
   12.4616    8.6700   19.4180 N   0  0  0  0  0  0  0  0  0  0  0  0
   11.8329   10.8148   18.6769 N   0  0  0  0  0  0  0  0  0  0  0  0
    6.1021    2.5564   21.0678 C   0  0  0  0  0  0  0  0  0  0  0  0
   10.9097   11.8051   18.4804 C   0  0  0  0  0  0  0  0  0  0  0  0
   11.2280   12.9135   17.5669 C   0  0  0  0  0  0  0  0  0  0  0  0
   12.3782    5.4231   20.7777 C   0  0  0  0  0  0  0  0  0  0  0  0
    7.7365    4.6508   21.6987 C   0  0  0  0  0  0  0  0  0  0  0  0
   13.0186   11.0102   18.0020 C   0  0  0  0  0  0  0  0  0  0  0  0
    8.6628    5.7088   21.8871 N   0  0  0  0  0  0  0  0  0  0  0  0
    5.6516    3.5258   21.9140 C   0  0  0  0  0  0  0  0  0  0  0  0
   11.5863    9.6815   19.4539 C   0  0  0  0  0  0  0  0  0  0  0  0
   12.9648    4.1543   20.9205 C   0  0  0  0  0  0  0  0  0  0  0  0
    8.2089    3.6265   20.8929 C   0  0  0  0  0  0  0  0  0  0  0  0
    7.3827    2.5724   20.5432 C   0  0  0  0  0  0  0  0  0  0  0  0
   11.1529    7.2750   20.8025 C   0  0  0  0  0  0  0  0  0  0  0  0
   10.2573    8.3215   20.9827 C   0  0  0  0  0  0  0  0  0  0  0  0
   11.1606    5.9378   21.2366 N   0  0  0  0  0  0  0  0  0  0  0  0
    9.8932   11.6736   19.0677 O   0  0  0  0  0  0  0  0  0  0  0  0
    6.4470    4.5850   22.2321 C   0  0  0  0  0  0  0  0  0  0  0  0
    8.4619    6.9895   22.2968 C   0  0  0  0  0  0  0  0  0  0  0  0
   12.2747    7.5102   20.0420 C   0  0  0  0  0  0  0  0  0  0  0  0
   14.2544    6.2142   19.4191 C   0  0  0  0  0  0  0  0  0  0  0  0
   13.0695    6.3705   20.0375 N   0  0  0  0  0  0  0  0  0  0  0  0
    9.1913    8.0876   21.8361 N   0  0  0  0  0  0  0  0  0  0  0  0
   10.4739    9.4813   20.2889 C   0  0  0  0  0  0  0  0  0  0  0  0
    7.5551    7.1270   23.1200 O   0  0  0  0  0  0  0  0  0  0  0  0
  1 11  4  0
  1 21  4  0
  2  4  1  0
  2  8  1  0
  2 11  1  0
  3 10  4  0
  3 14  4  0
  4  5  1  0
  4 18  2  0
  6 12  1  0
  6 17  4  0
  6 23  4  0
  7  9  1  0
  7 13  4  0
  7 19  4  0
  9 20  1  0
 10 19  4  0
 11 25  4  0
 13 14  4  0
 15 16  4  0
 15 17  4  0
 15 21  4  0
 16 24  1  0
 16 25  4  0
 20 24  1  0
 20 26  2  0
 21 23  4  0
 22 23  1  0
M  END
$$$$

 Created by Python create_sdf_string function

 26 28  0  0  0  0  0  0  0  0999 V2000
   12.4616    8.6700   19.4180 N   0  0  0  0  0  0  0  0  0  0  0  0
   11.8329   10.8148   18.6769 N   0  0  0  0  0  0  0  0  0  0  0  0
    6.1021    2.5564   21.0678 C   0  0  0  0  0  0  0  0  0  0  0  0
   10.9097   11.8051   18.4804 C   0  0  0  0  0  0  0  0  0  0  0  0
   11.2280   12.9135   17.5669 C   0  0  0  0  0  0  0  0  0  0  0  0
   12.3782    5.4231   20.7777 C   0  0  0  0  0  0  0  0  0  0  0  0
    7.7365    4.6508   21.6987 C   0  0  0  0  0  0  0  0  0  0  0  0
   13.0186   11.0102   18.0020 C   0  0  0  0  0  0  0  0  0  0  0  0
    8.6628    5.7088   21.8871 N   0  0  0  0  0  0  0  0  0  0  0  0
    5.6516    3.5258   21.9140 C   0  0  0  0  0  0  0  0  0  0  0  0
   11.5863    9.6815   19.4539 C   0  0  0  0  0  0  0  0  0  0  0  0
   12.9648    4.1543   20.9205 C   0  0  0  0  0  0  0  0  0  0  0  0
    8.2089    3.6265   20.8929 C   0  0  0  0  0  0  0  0  0  0  0  0
    7.3827    2.5724   20.5432 C   0  0  0  0  0  0  0  0  0  0  0  0
   11.1529    7.2750   20.8025 C   0  0  0  0  0  0  0  0  0  0  0  0
   10.2573    8.3215   20.9827 C   0  0  0  0  0  0  0  0  0  0  0  0
   11.1606    5.9378   21.2366 N   0  0  0  0  0  0  0  0  0  0  0  0
    9.8932   11.6736   19.0677 O   0  0  0  0  0  0  0  0  0  0  0  0
    6.4470    4.5850   22.2321 C   0  0  0  0  0  0  0  0  0  0  0  0
    8.4619    6.9895   22.2968 C   0  0  0  0  0  0  0  0  0  0  0  0
   12.2747    7.5102   20.0420 C   0  0  0  0  0  0  0  0  0  0  0  0
   14.2544    6.2142   19.4191 C   0  0  0  0  0  0  0  0  0  0  0  0
   13.0695    6.3705   20.0375 N   0  0  0  0  0  0  0  0  0  0  0  0
    9.1913    8.0876   21.8361 N   0  0  0  0  0  0  0  0  0  0  0  0
   10.4739    9.4813   20.2889 C   0  0  0  0  0  0  0  0  0  0  0  0
    7.5551    7.1270   23.1200 O   0  0  0  0  0  0  0  0  0  0  0  0
  1 11  4  0
  1 21  4  0
  2  4  1  0
  2  8  1  0
  2 11  1  0
  3 10  4  0
  3 14  4  0
  4  5  1  0
  4 18  2  0
  6 12  1  0
  6 17  4  0
  6 23  4  0
  7  9  1  0
  7 13  4  0
  7 19  4  0
  9 20  1  0
 10 19  4  0
 11 25  4  0
 13 14  4  0
 15 16  4  0
 15 17  4  0
 15 21  4  0
 16 24  1  0
 16 25  4  0
 20 24  1  0
 20 26  2  0
 21 23  4  0
 22 23  1  0
M  END
$$$$

 Created by Python create_sdf_string function

 26 28  0  0  0  0  0  0  0  0999 V2000
   12.4616    8.6700   19.4180 N   0  0  0  0  0  0  0  0  0  0  0  0
   11.8329   10.8148   18.6769 N   0  0  0  0  0  0  0  0  0  0  0  0
    6.1021    2.5564   21.0678 C   0  0  0  0  0  0  0  0  0  0  0  0
   10.9097   11.8051   18.4804 C   0  0  0  0  0  0  0  0  0  0  0  0
   11.2280   12.9135   17.5669 C   0  0  0  0  0  0  0  0  0  0  0  0
   12.3782    5.4231   20.7777 C   0  0  0  0  0  0  0  0  0  0  0  0
    7.7365    4.6508   21.6987 C   0  0  0  0  0  0  0  0  0  0  0  0
   13.0186   11.0102   18.0020 C   0  0  0  0  0  0  0  0  0  0  0  0
    8.6628    5.7088   21.8871 N   0  0  0  0  0  0  0  0  0  0  0  0
    5.6516    3.5258   21.9140 C   0  0  0  0  0  0  0  0  0  0  0  0
   11.5863    9.6815   19.4539 C   0  0  0  0  0  0  0  0  0  0  0  0
   12.9648    4.1543   20.9205 C   0  0  0  0  0  0  0  0  0  0  0  0
    8.2089    3.6265   20.8929 C   0  0  0  0  0  0  0  0  0  0  0  0
    7.3827    2.5724   20.5432 C   0  0  0  0  0  0  0  0  0  0  0  0
   11.1529    7.2750   20.8025 C   0  0  0  0  0  0  0  0  0  0  0  0
   10.2573    8.3215   20.9827 C   0  0  0  0  0  0  0  0  0  0  0  0
   11.1606    5.9378   21.2366 N   0  0  0  0  0  0  0  0  0  0  0  0
    9.8932   11.6736   19.0677 O   0  0  0  0  0  0  0  0  0  0  0  0
    6.4470    4.5850   22.2321 C   0  0  0  0  0  0  0  0  0  0  0  0
    8.4619    6.9895   22.2968 C   0  0  0  0  0  0  0  0  0  0  0  0
   12.2747    7.5102   20.0420 C   0  0  0  0  0  0  0  0  0  0  0  0
   14.2544    6.2142   19.4191 C   0  0  0  0  0  0  0  0  0  0  0  0
   13.0695    6.3705   20.0375 N   0  0  0  0  0  0  0  0  0  0  0  0
    9.1913    8.0876   21.8361 N   0  0  0  0  0  0  0  0  0  0  0  0
   10.4739    9.4813   20.2889 C   0  0  0  0  0  0  0  0  0  0  0  0
    7.5551    7.1270   23.1200 O   0  0  0  0  0  0  0  0  0  0  0  0
  1 11  4  0
  1 21  4  0
  2  4  1  0
  2  8  1  0
  2 11  1  0
  3 10  4  0
  3 14  4  0
  4  5  1  0
  4 18  2  0
  6 12  1  0
  6 17  4  0
  6 23  4  0
  7  9  1  0
  7 13  4  0
  7 19  4  0
  9 20  1  0
 10 19  4  0
 11 25  4  0
 13 14  4  0
 15 16  4  0
 15 17  4  0
 15 21  4  0
 16 24  1  0
 16 25  4  0
 20 24  1  0
 20 26  2  0
 21 23  4  0
 22 23  1  0
M  END
$$$$

 Created by Python create_sdf_string function

 26 28  0  0  0  0  0  0  0  0999 V2000
   12.4616    8.6700   19.4180 N   0  0  0  0  0  0  0  0  0  0  0  0
   11.8329   10.8148   18.6769 N   0  0  0  0  0  0  0  0  0  0  0  0
    6.1021    2.5564   21.0678 C   0  0  0  0  0  0  0  0  0  0  0  0
   10.9097   11.8051   18.4804 C   0  0  0  0  0  0  0  0  0  0  0  0
   11.2280   12.9135   17.5669 C   0  0  0  0  0  0  0  0  0  0  0  0
   12.3782    5.4231   20.7777 C   0  0  0  0  0  0  0  0  0  0  0  0
    7.7365    4.6508   21.6987 C   0  0  0  0  0  0  0  0  0  0  0  0
   13.0186   11.0102   18.0020 C   0  0  0  0  0  0  0  0  0  0  0  0
    8.6628    5.7088   21.8871 N   0  0  0  0  0  0  0  0  0  0  0  0
    5.6516    3.5258   21.9140 C   0  0  0  0  0  0  0  0  0  0  0  0
   11.5863    9.6815   19.4539 C   0  0  0  0  0  0  0  0  0  0  0  0
   12.9648    4.1543   20.9205 C   0  0  0  0  0  0  0  0  0  0  0  0
    8.2089    3.6265   20.8929 C   0  0  0  0  0  0  0  0  0  0  0  0
    7.3827    2.5724   20.5432 C   0  0  0  0  0  0  0  0  0  0  0  0
   11.1529    7.2750   20.8025 C   0  0  0  0  0  0  0  0  0  0  0  0
   10.2573    8.3215   20.9827 C   0  0  0  0  0  0  0  0  0  0  0  0
   11.1606    5.9378   21.2366 N   0  0  0  0  0  0  0  0  0  0  0  0
    9.8932   11.6736   19.0677 O   0  0  0  0  0  0  0  0  0  0  0  0
    6.4470    4.5850   22.2321 C   0  0  0  0  0  0  0  0  0  0  0  0
    8.4619    6.9895   22.2968 C   0  0  0  0  0  0  0  0  0  0  0  0
   12.2747    7.5102   20.0420 C   0  0  0  0  0  0  0  0  0  0  0  0
   14.2544    6.2142   19.4191 C   0  0  0  0  0  0  0  0  0  0  0  0
   13.0695    6.3705   20.0375 N   0  0  0  0  0  0  0  0  0  0  0  0
    9.1913    8.0876   21.8361 N   0  0  0  0  0  0  0  0  0  0  0  0
   10.4739    9.4813   20.2889 C   0  0  0  0  0  0  0  0  0  0  0  0
    7.5551    7.1270   23.1200 O   0  0  0  0  0  0  0  0  0  0  0  0
  1 11  4  0
  1 21  4  0
  2  4  1  0
  2  8  1  0
  2 11  1  0
  3 10  4  0
  3 14  4  0
  4  5  1  0
  4 18  2  0
  6 12  1  0
  6 17  4  0
  6 23  4  0
  7  9  1  0
  7 13  4  0
  7 19  4  0
  9 20  1  0
 10 19  4  0
 11 25  4  0
 13 14  4  0
 15 16  4  0
 15 17  4  0
 15 21  4  0
 16 24  1  0
 16 25  4  0
 20 24  1  0
 20 26  2  0
 21 23  4  0
 22 23  1  0
M  END
$$$$

 Created by Python create_sdf_string function

 26 28  0  0  0  0  0  0  0  0999 V2000
   12.4616    8.6700   19.4180 N   0  0  0  0  0  0  0  0  0  0  0  0
   11.8329   10.8148   18.6769 N   0  0  0  0  0  0  0  0  0  0  0  0
    6.1021    2.5564   21.0678 C   0  0  0  0  0  0  0  0  0  0  0  0
   10.9097   11.8051   18.4804 C   0  0  0  0  0  0  0  0  0  0  0  0
   11.2280   12.9135   17.5669 C   0  0  0  0  0  0  0  0  0  0  0  0
   12.3782    5.4231   20.7777 C   0  0  0  0  0  0  0  0  0  0  0  0
    7.7365    4.6508   21.6987 C   0  0  0  0  0  0  0  0  0  0  0  0
   13.0186   11.0102   18.0020 C   0  0  0  0  0  0  0  0  0  0  0  0
    8.6628    5.7088   21.8871 N   0  0  0  0  0  0  0  0  0  0  0  0
    5.6516    3.5258   21.9140 C   0  0  0  0  0  0  0  0  0  0  0  0
   11.5863    9.6815   19.4539 C   0  0  0  0  0  0  0  0  0  0  0  0
   12.9648    4.1543   20.9205 C   0  0  0  0  0  0  0  0  0  0  0  0
    8.2089    3.6265   20.8929 C   0  0  0  0  0  0  0  0  0  0  0  0
    7.3827    2.5724   20.5432 C   0  0  0  0  0  0  0  0  0  0  0  0
   11.1529    7.2750   20.8025 C   0  0  0  0  0  0  0  0  0  0  0  0
   10.2573    8.3215   20.9827 C   0  0  0  0  0  0  0  0  0  0  0  0
   11.1606    5.9378   21.2366 N   0  0  0  0  0  0  0  0  0  0  0  0
    9.8932   11.6736   19.0677 O   0  0  0  0  0  0  0  0  0  0  0  0
    6.4470    4.5850   22.2321 C   0  0  0  0  0  0  0  0  0  0  0  0
    8.4619    6.9895   22.2968 C   0  0  0  0  0  0  0  0  0  0  0  0
   12.2747    7.5102   20.0420 C   0  0  0  0  0  0  0  0  0  0  0  0
   14.2544    6.2142   19.4191 C   0  0  0  0  0  0  0  0  0  0  0  0
   13.0695    6.3705   20.0375 N   0  0  0  0  0  0  0  0  0  0  0  0
    9.1913    8.0876   21.8361 N   0  0  0  0  0  0  0  0  0  0  0  0
   10.4739    9.4813   20.2889 C   0  0  0  0  0  0  0  0  0  0  0  0
    7.5551    7.1270   23.1200 O   0  0  0  0  0  0  0  0  0  0  0  0
  1 11  4  0
  1 21  4  0
  2  4  1  0
  2  8  1  0
  2 11  1  0
  3 10  4  0
  3 14  4  0
  4  5  1  0
  4 18  2  0
  6 12  1  0
  6 17  4  0
  6 23  4  0
  7  9  1  0
  7 13  4  0
  7 19  4  0
  9 20  1  0
 10 19  4  0
 11 25  4  0
 13 14  4  0
 15 16  4  0
 15 17  4  0
 15 21  4  0
 16 24  1  0
 16 25  4  0
 20 24  1  0
 20 26  2  0
 21 23  4  0
 22 23  1  0
M  END
$$$$

 Created by Python create_sdf_string function

 26 28  0  0  0  0  0  0  0  0999 V2000
   12.4616    8.6700   19.4180 N   0  0  0  0  0  0  0  0  0  0  0  0
   11.8329   10.8148   18.6769 N   0  0  0  0  0  0  0  0  0  0  0  0
    6.1021    2.5564   21.0678 C   0  0  0  0  0  0  0  0  0  0  0  0
   10.9097   11.8051   18.4804 C   0  0  0  0  0  0  0  0  0  0  0  0
   11.2280   12.9135   17.5669 C   0  0  0  0  0  0  0  0  0  0  0  0
   12.3782    5.4231   20.7777 C   0  0  0  0  0  0  0  0  0  0  0  0
    7.7365    4.6508   21.6987 C   0  0  0  0  0  0  0  0  0  0  0  0
   13.0186   11.0102   18.0020 C   0  0  0  0  0  0  0  0  0  0  0  0
    8.6628    5.7088   21.8871 N   0  0  0  0  0  0  0  0  0  0  0  0
    5.6516    3.5258   21.9140 C   0  0  0  0  0  0  0  0  0  0  0  0
   11.5863    9.6815   19.4539 C   0  0  0  0  0  0  0  0  0  0  0  0
   12.9648    4.1543   20.9205 C   0  0  0  0  0  0  0  0  0  0  0  0
    8.2089    3.6265   20.8929 C   0  0  0  0  0  0  0  0  0  0  0  0
    7.3827    2.5724   20.5432 C   0  0  0  0  0  0  0  0  0  0  0  0
   11.1529    7.2750   20.8025 C   0  0  0  0  0  0  0  0  0  0  0  0
   10.2573    8.3215   20.9827 C   0  0  0  0  0  0  0  0  0  0  0  0
   11.1606    5.9378   21.2366 N   0  0  0  0  0  0  0  0  0  0  0  0
    9.8932   11.6736   19.0677 O   0  0  0  0  0  0  0  0  0  0  0  0
    6.4470    4.5850   22.2321 C   0  0  0  0  0  0  0  0  0  0  0  0
    8.4619    6.9895   22.2968 C   0  0  0  0  0  0  0  0  0  0  0  0
   12.2747    7.5102   20.0420 C   0  0  0  0  0  0  0  0  0  0  0  0
   14.2544    6.2142   19.4191 C   0  0  0  0  0  0  0  0  0  0  0  0
   13.0695    6.3705   20.0375 N   0  0  0  0  0  0  0  0  0  0  0  0
    9.1913    8.0876   21.8361 N   0  0  0  0  0  0  0  0  0  0  0  0
   10.4739    9.4813   20.2889 C   0  0  0  0  0  0  0  0  0  0  0  0
    7.5551    7.1270   23.1200 O   0  0  0  0  0  0  0  0  0  0  0  0
  1 11  4  0
  1 21  4  0
  2  4  1  0
  2  8  1  0
  2 11  1  0
  3 10  4  0
  3 14  4  0
  4  5  1  0
  4 18  2  0
  6 12  1  0
  6 17  4  0
  6 23  4  0
  7  9  1  0
  7 13  4  0
  7 19  4  0
  9 20  1  0
 10 19  4  0
 11 25  4  0
 13 14  4  0
 15 16  4  0
 15 17  4  0
 15 21  4  0
 16 24  1  0
 16 25  4  0
 20 24  1  0
 20 26  2  0
 21 23  4  0
 22 23  1  0
M  END
$$$$

 Created by Python create_sdf_string function

 26 28  0  0  0  0  0  0  0  0999 V2000
   12.4616    8.6700   19.4180 N   0  0  0  0  0  0  0  0  0  0  0  0
   11.8329   10.8148   18.6769 N   0  0  0  0  0  0  0  0  0  0  0  0
    6.1021    2.5564   21.0678 C   0  0  0  0  0  0  0  0  0  0  0  0
   10.9097   11.8051   18.4804 C   0  0  0  0  0  0  0  0  0  0  0  0
   11.2280   12.9135   17.5669 C   0  0  0  0  0  0  0  0  0  0  0  0
   12.3782    5.4231   20.7777 C   0  0  0  0  0  0  0  0  0  0  0  0
    7.7365    4.6508   21.6987 C   0  0  0  0  0  0  0  0  0  0  0  0
   13.0186   11.0102   18.0020 C   0  0  0  0  0  0  0  0  0  0  0  0
    8.6628    5.7088   21.8871 N   0  0  0  0  0  0  0  0  0  0  0  0
    5.6516    3.5258   21.9140 C   0  0  0  0  0  0  0  0  0  0  0  0
   11.5863    9.6815   19.4539 C   0  0  0  0  0  0  0  0  0  0  0  0
   12.9648    4.1543   20.9205 C   0  0  0  0  0  0  0  0  0  0  0  0
    8.2089    3.6265   20.8929 C   0  0  0  0  0  0  0  0  0  0  0  0
    7.3827    2.5724   20.5432 C   0  0  0  0  0  0  0  0  0  0  0  0
   11.1529    7.2750   20.8025 C   0  0  0  0  0  0  0  0  0  0  0  0
   10.2573    8.3215   20.9827 C   0  0  0  0  0  0  0  0  0  0  0  0
   11.1606    5.9378   21.2366 N   0  0  0  0  0  0  0  0  0  0  0  0
    9.8932   11.6736   19.0677 O   0  0  0  0  0  0  0  0  0  0  0  0
    6.4470    4.5850   22.2321 C   0  0  0  0  0  0  0  0  0  0  0  0
    8.4619    6.9895   22.2968 C   0  0  0  0  0  0  0  0  0  0  0  0
   12.2747    7.5102   20.0420 C   0  0  0  0  0  0  0  0  0  0  0  0
   14.2544    6.2142   19.4191 C   0  0  0  0  0  0  0  0  0  0  0  0
   13.0695    6.3705   20.0375 N   0  0  0  0  0  0  0  0  0  0  0  0
    9.1913    8.0876   21.8361 N   0  0  0  0  0  0  0  0  0  0  0  0
   10.4739    9.4813   20.2889 C   0  0  0  0  0  0  0  0  0  0  0  0
    7.5551    7.1270   23.1200 O   0  0  0  0  0  0  0  0  0  0  0  0
  1 11  4  0
  1 21  4  0
  2  4  1  0
  2  8  1  0
  2 11  1  0
  3 10  4  0
  3 14  4  0
  4  5  1  0
  4 18  2  0
  6 12  1  0
  6 17  4  0
  6 23  4  0
  7  9  1  0
  7 13  4  0
  7 19  4  0
  9 20  1  0
 10 19  4  0
 11 25  4  0
 13 14  4  0
 15 16  4  0
 15 17  4  0
 15 21  4  0
 16 24  1  0
 16 25  4  0
 20 24  1  0
 20 26  2  0
 21 23  4  0
 22 23  1  0
M  END
$$$$

 Created by Python create_sdf_string function

 26 28  0  0  0  0  0  0  0  0999 V2000
   12.4616    8.6700   19.4180 N   0  0  0  0  0  0  0  0  0  0  0  0
   11.8329   10.8148   18.6769 N   0  0  0  0  0  0  0  0  0  0  0  0
    6.1021    2.5564   21.0678 C   0  0  0  0  0  0  0  0  0  0  0  0
   10.9097   11.8051   18.4804 C   0  0  0  0  0  0  0  0  0  0  0  0
   11.2280   12.9135   17.5669 C   0  0  0  0  0  0  0  0  0  0  0  0
   12.3782    5.4231   20.7777 C   0  0  0  0  0  0  0  0  0  0  0  0
    7.7365    4.6508   21.6987 C   0  0  0  0  0  0  0  0  0  0  0  0
   13.0186   11.0102   18.0020 C   0  0  0  0  0  0  0  0  0  0  0  0
    8.6628    5.7088   21.8871 N   0  0  0  0  0  0  0  0  0  0  0  0
    5.6516    3.5258   21.9140 C   0  0  0  0  0  0  0  0  0  0  0  0
   11.5863    9.6815   19.4539 C   0  0  0  0  0  0  0  0  0  0  0  0
   12.9648    4.1543   20.9205 C   0  0  0  0  0  0  0  0  0  0  0  0
    8.2089    3.6265   20.8929 C   0  0  0  0  0  0  0  0  0  0  0  0
    7.3827    2.5724   20.5432 C   0  0  0  0  0  0  0  0  0  0  0  0
   11.1529    7.2750   20.8025 C   0  0  0  0  0  0  0  0  0  0  0  0
   10.2573    8.3215   20.9827 C   0  0  0  0  0  0  0  0  0  0  0  0
   11.1606    5.9378   21.2366 N   0  0  0  0  0  0  0  0  0  0  0  0
    9.8932   11.6736   19.0677 O   0  0  0  0  0  0  0  0  0  0  0  0
    6.4470    4.5850   22.2321 C   0  0  0  0  0  0  0  0  0  0  0  0
    8.4619    6.9895   22.2968 C   0  0  0  0  0  0  0  0  0  0  0  0
   12.2747    7.5102   20.0420 C   0  0  0  0  0  0  0  0  0  0  0  0
   14.2544    6.2142   19.4191 C   0  0  0  0  0  0  0  0  0  0  0  0
   13.0695    6.3705   20.0375 N   0  0  0  0  0  0  0  0  0  0  0  0
    9.1913    8.0876   21.8361 N   0  0  0  0  0  0  0  0  0  0  0  0
   10.4739    9.4813   20.2889 C   0  0  0  0  0  0  0  0  0  0  0  0
    7.5551    7.1270   23.1200 O   0  0  0  0  0  0  0  0  0  0  0  0
  1 11  4  0
  1 21  4  0
  2  4  1  0
  2  8  1  0
  2 11  1  0
  3 10  4  0
  3 14  4  0
  4  5  1  0
  4 18  2  0
  6 12  1  0
  6 17  4  0
  6 23  4  0
  7  9  1  0
  7 13  4  0
  7 19  4  0
  9 20  1  0
 10 19  4  0
 11 25  4  0
 13 14  4  0
 15 16  4  0
 15 17  4  0
 15 21  4  0
 16 24  1  0
 16 25  4  0
 20 24  1  0
 20 26  2  0
 21 23  4  0
 22 23  1  0
M  END
$$$$

 Created by Python create_sdf_string function

 26 28  0  0  0  0  0  0  0  0999 V2000
   12.4616    8.6700   19.4180 N   0  0  0  0  0  0  0  0  0  0  0  0
   11.8329   10.8148   18.6769 N   0  0  0  0  0  0  0  0  0  0  0  0
    6.1021    2.5564   21.0678 C   0  0  0  0  0  0  0  0  0  0  0  0
   10.9097   11.8051   18.4804 C   0  0  0  0  0  0  0  0  0  0  0  0
   11.2280   12.9135   17.5669 C   0  0  0  0  0  0  0  0  0  0  0  0
   12.3782    5.4231   20.7777 C   0  0  0  0  0  0  0  0  0  0  0  0
    7.7365    4.6508   21.6987 C   0  0  0  0  0  0  0  0  0  0  0  0
   13.0186   11.0102   18.0020 C   0  0  0  0  0  0  0  0  0  0  0  0
    8.6628    5.7088   21.8871 N   0  0  0  0  0  0  0  0  0  0  0  0
    5.6516    3.5258   21.9140 C   0  0  0  0  0  0  0  0  0  0  0  0
   11.5863    9.6815   19.4539 C   0  0  0  0  0  0  0  0  0  0  0  0
   12.9648    4.1543   20.9205 C   0  0  0  0  0  0  0  0  0  0  0  0
    8.2089    3.6265   20.8929 C   0  0  0  0  0  0  0  0  0  0  0  0
    7.3827    2.5724   20.5432 C   0  0  0  0  0  0  0  0  0  0  0  0
   11.1529    7.2750   20.8025 C   0  0  0  0  0  0  0  0  0  0  0  0
   10.2573    8.3215   20.9827 C   0  0  0  0  0  0  0  0  0  0  0  0
   11.1606    5.9378   21.2366 N   0  0  0  0  0  0  0  0  0  0  0  0
    9.8932   11.6736   19.0677 O   0  0  0  0  0  0  0  0  0  0  0  0
    6.4470    4.5850   22.2321 C   0  0  0  0  0  0  0  0  0  0  0  0
    8.4619    6.9895   22.2968 C   0  0  0  0  0  0  0  0  0  0  0  0
   12.2747    7.5102   20.0420 C   0  0  0  0  0  0  0  0  0  0  0  0
   14.2544    6.2142   19.4191 C   0  0  0  0  0  0  0  0  0  0  0  0
   13.0695    6.3705   20.0375 N   0  0  0  0  0  0  0  0  0  0  0  0
    9.1913    8.0876   21.8361 N   0  0  0  0  0  0  0  0  0  0  0  0
   10.4739    9.4813   20.2889 C   0  0  0  0  0  0  0  0  0  0  0  0
    7.5551    7.1270   23.1200 O   0  0  0  0  0  0  0  0  0  0  0  0
  1 11  4  0
  1 21  4  0
  2  4  1  0
  2  8  1  0
  2 11  1  0
  3 10  4  0
  3 14  4  0
  4  5  1  0
  4 18  2  0
  6 12  1  0
  6 17  4  0
  6 23  4  0
  7  9  1  0
  7 13  4  0
  7 19  4  0
  9 20  1  0
 10 19  4  0
 11 25  4  0
 13 14  4  0
 15 16  4  0
 15 17  4  0
 15 21  4  0
 16 24  1  0
 16 25  4  0
 20 24  1  0
 20 26  2  0
 21 23  4  0
 22 23  1  0
M  END
$$$$

 Created by Python create_sdf_string function

 26 28  0  0  0  0  0  0  0  0999 V2000
   12.4616    8.6700   19.4180 N   0  0  0  0  0  0  0  0  0  0  0  0
   11.8329   10.8148   18.6769 N   0  0  0  0  0  0  0  0  0  0  0  0
    6.1021    2.5564   21.0678 C   0  0  0  0  0  0  0  0  0  0  0  0
   10.9097   11.8051   18.4804 C   0  0  0  0  0  0  0  0  0  0  0  0
   11.2280   12.9135   17.5669 C   0  0  0  0  0  0  0  0  0  0  0  0
   12.3782    5.4231   20.7777 C   0  0  0  0  0  0  0  0  0  0  0  0
    7.7365    4.6508   21.6987 C   0  0  0  0  0  0  0  0  0  0  0  0
   13.0186   11.0102   18.0020 C   0  0  0  0  0  0  0  0  0  0  0  0
    8.6628    5.7088   21.8871 N   0  0  0  0  0  0  0  0  0  0  0  0
    5.6516    3.5258   21.9140 C   0  0  0  0  0  0  0  0  0  0  0  0
   11.5863    9.6815   19.4539 C   0  0  0  0  0  0  0  0  0  0  0  0
   12.9648    4.1543   20.9205 C   0  0  0  0  0  0  0  0  0  0  0  0
    8.2089    3.6265   20.8929 C   0  0  0  0  0  0  0  0  0  0  0  0
    7.3827    2.5724   20.5432 C   0  0  0  0  0  0  0  0  0  0  0  0
   11.1529    7.2750   20.8025 C   0  0  0  0  0  0  0  0  0  0  0  0
   10.2573    8.3215   20.9827 C   0  0  0  0  0  0  0  0  0  0  0  0
   11.1606    5.9378   21.2366 N   0  0  0  0  0  0  0  0  0  0  0  0
    9.8932   11.6736   19.0677 O   0  0  0  0  0  0  0  0  0  0  0  0
    6.4470    4.5850   22.2321 C   0  0  0  0  0  0  0  0  0  0  0  0
    8.4619    6.9895   22.2968 C   0  0  0  0  0  0  0  0  0  0  0  0
   12.2747    7.5102   20.0420 C   0  0  0  0  0  0  0  0  0  0  0  0
   14.2544    6.2142   19.4191 C   0  0  0  0  0  0  0  0  0  0  0  0
   13.0695    6.3705   20.0375 N   0  0  0  0  0  0  0  0  0  0  0  0
    9.1913    8.0876   21.8361 N   0  0  0  0  0  0  0  0  0  0  0  0
   10.4739    9.4813   20.2889 C   0  0  0  0  0  0  0  0  0  0  0  0
    7.5551    7.1270   23.1200 O   0  0  0  0  0  0  0  0  0  0  0  0
  1 11  4  0
  1 21  4  0
  2  4  1  0
  2  8  1  0
  2 11  1  0
  3 10  4  0
  3 14  4  0
  4  5  1  0
  4 18  2  0
  6 12  1  0
  6 17  4  0
  6 23  4  0
  7  9  1  0
  7 13  4  0
  7 19  4  0
  9 20  1  0
 10 19  4  0
 11 25  4  0
 13 14  4  0
 15 16  4  0
 15 17  4  0
 15 21  4  0
 16 24  1  0
 16 25  4  0
 20 24  1  0
 20 26  2  0
 21 23  4  0
 22 23  1  0
M  END
$$$$

 Created by Python create_sdf_string function

 26 28  0  0  0  0  0  0  0  0999 V2000
   12.4616    8.6700   19.4180 N   0  0  0  0  0  0  0  0  0  0  0  0
   11.8329   10.8148   18.6769 N   0  0  0  0  0  0  0  0  0  0  0  0
    6.1021    2.5564   21.0678 C   0  0  0  0  0  0  0  0  0  0  0  0
   10.9097   11.8051   18.4804 C   0  0  0  0  0  0  0  0  0  0  0  0
   11.2280   12.9135   17.5669 C   0  0  0  0  0  0  0  0  0  0  0  0
   12.3782    5.4231   20.7777 C   0  0  0  0  0  0  0  0  0  0  0  0
    7.7365    4.6508   21.6987 C   0  0  0  0  0  0  0  0  0  0  0  0
   13.0186   11.0102   18.0020 C   0  0  0  0  0  0  0  0  0  0  0  0
    8.6628    5.7088   21.8871 N   0  0  0  0  0  0  0  0  0  0  0  0
    5.6516    3.5258   21.9140 C   0  0  0  0  0  0  0  0  0  0  0  0
   11.5863    9.6815   19.4539 C   0  0  0  0  0  0  0  0  0  0  0  0
   12.9648    4.1543   20.9205 C   0  0  0  0  0  0  0  0  0  0  0  0
    8.2089    3.6265   20.8929 C   0  0  0  0  0  0  0  0  0  0  0  0
    7.3827    2.5724   20.5432 C   0  0  0  0  0  0  0  0  0  0  0  0
   11.1529    7.2750   20.8025 C   0  0  0  0  0  0  0  0  0  0  0  0
   10.2573    8.3215   20.9827 C   0  0  0  0  0  0  0  0  0  0  0  0
   11.1606    5.9378   21.2366 N   0  0  0  0  0  0  0  0  0  0  0  0
    9.8932   11.6736   19.0677 O   0  0  0  0  0  0  0  0  0  0  0  0
    6.4470    4.5850   22.2321 C   0  0  0  0  0  0  0  0  0  0  0  0
    8.4619    6.9895   22.2968 C   0  0  0  0  0  0  0  0  0  0  0  0
   12.2747    7.5102   20.0420 C   0  0  0  0  0  0  0  0  0  0  0  0
   14.2544    6.2142   19.4191 C   0  0  0  0  0  0  0  0  0  0  0  0
   13.0695    6.3705   20.0375 N   0  0  0  0  0  0  0  0  0  0  0  0
    9.1913    8.0876   21.8361 N   0  0  0  0  0  0  0  0  0  0  0  0
   10.4739    9.4813   20.2889 C   0  0  0  0  0  0  0  0  0  0  0  0
    7.5551    7.1270   23.1200 O   0  0  0  0  0  0  0  0  0  0  0  0
  1 11  4  0
  1 21  4  0
  2  4  1  0
  2  8  1  0
  2 11  1  0
  3 10  4  0
  3 14  4  0
  4  5  1  0
  4 18  2  0
  6 12  1  0
  6 17  4  0
  6 23  4  0
  7  9  1  0
  7 13  4  0
  7 19  4  0
  9 20  1  0
 10 19  4  0
 11 25  4  0
 13 14  4  0
 15 16  4  0
 15 17  4  0
 15 21  4  0
 16 24  1  0
 16 25  4  0
 20 24  1  0
 20 26  2  0
 21 23  4  0
 22 23  1  0
M  END
$$$$

 Created by Python create_sdf_string function

 26 28  0  0  0  0  0  0  0  0999 V2000
   12.4616    8.6700   19.4180 N   0  0  0  0  0  0  0  0  0  0  0  0
   11.8329   10.8148   18.6769 N   0  0  0  0  0  0  0  0  0  0  0  0
    6.1021    2.5564   21.0678 C   0  0  0  0  0  0  0  0  0  0  0  0
   10.9097   11.8051   18.4804 C   0  0  0  0  0  0  0  0  0  0  0  0
   11.2280   12.9135   17.5669 C   0  0  0  0  0  0  0  0  0  0  0  0
   12.3782    5.4231   20.7777 C   0  0  0  0  0  0  0  0  0  0  0  0
    7.7365    4.6508   21.6987 C   0  0  0  0  0  0  0  0  0  0  0  0
   13.0186   11.0102   18.0020 C   0  0  0  0  0  0  0  0  0  0  0  0
    8.6628    5.7088   21.8871 N   0  0  0  0  0  0  0  0  0  0  0  0
    5.6516    3.5258   21.9140 C   0  0  0  0  0  0  0  0  0  0  0  0
   11.5863    9.6815   19.4539 C   0  0  0  0  0  0  0  0  0  0  0  0
   12.9648    4.1543   20.9205 C   0  0  0  0  0  0  0  0  0  0  0  0
    8.2089    3.6265   20.8929 C   0  0  0  0  0  0  0  0  0  0  0  0
    7.3827    2.5724   20.5432 C   0  0  0  0  0  0  0  0  0  0  0  0
   11.1529    7.2750   20.8025 C   0  0  0  0  0  0  0  0  0  0  0  0
   10.2573    8.3215   20.9827 C   0  0  0  0  0  0  0  0  0  0  0  0
   11.1606    5.9378   21.2366 N   0  0  0  0  0  0  0  0  0  0  0  0
    9.8932   11.6736   19.0677 O   0  0  0  0  0  0  0  0  0  0  0  0
    6.4470    4.5850   22.2321 C   0  0  0  0  0  0  0  0  0  0  0  0
    8.4619    6.9895   22.2968 C   0  0  0  0  0  0  0  0  0  0  0  0
   12.2747    7.5102   20.0420 C   0  0  0  0  0  0  0  0  0  0  0  0
   14.2544    6.2142   19.4191 C   0  0  0  0  0  0  0  0  0  0  0  0
   13.0695    6.3705   20.0375 N   0  0  0  0  0  0  0  0  0  0  0  0
    9.1913    8.0876   21.8361 N   0  0  0  0  0  0  0  0  0  0  0  0
   10.4739    9.4813   20.2889 C   0  0  0  0  0  0  0  0  0  0  0  0
    7.5551    7.1270   23.1200 O   0  0  0  0  0  0  0  0  0  0  0  0
  1 11  4  0
  1 21  4  0
  2  4  1  0
  2  8  1  0
  2 11  1  0
  3 10  4  0
  3 14  4  0
  4  5  1  0
  4 18  2  0
  6 12  1  0
  6 17  4  0
  6 23  4  0
  7  9  1  0
  7 13  4  0
  7 19  4  0
  9 20  1  0
 10 19  4  0
 11 25  4  0
 13 14  4  0
 15 16  4  0
 15 17  4  0
 15 21  4  0
 16 24  1  0
 16 25  4  0
 20 24  1  0
 20 26  2  0
 21 23  4  0
 22 23  1  0
M  END
$$$$

 Created by Python create_sdf_string function

 26 28  0  0  0  0  0  0  0  0999 V2000
   12.4616    8.6700   19.4180 N   0  0  0  0  0  0  0  0  0  0  0  0
   11.8329   10.8148   18.6769 N   0  0  0  0  0  0  0  0  0  0  0  0
    6.1021    2.5564   21.0678 C   0  0  0  0  0  0  0  0  0  0  0  0
   10.9097   11.8051   18.4804 C   0  0  0  0  0  0  0  0  0  0  0  0
   11.2280   12.9135   17.5669 C   0  0  0  0  0  0  0  0  0  0  0  0
   12.3782    5.4231   20.7777 C   0  0  0  0  0  0  0  0  0  0  0  0
    7.7365    4.6508   21.6987 C   0  0  0  0  0  0  0  0  0  0  0  0
   13.0186   11.0102   18.0020 C   0  0  0  0  0  0  0  0  0  0  0  0
    8.6628    5.7088   21.8871 N   0  0  0  0  0  0  0  0  0  0  0  0
    5.6516    3.5258   21.9140 C   0  0  0  0  0  0  0  0  0  0  0  0
   11.5863    9.6815   19.4539 C   0  0  0  0  0  0  0  0  0  0  0  0
   12.9648    4.1543   20.9205 C   0  0  0  0  0  0  0  0  0  0  0  0
    8.2089    3.6265   20.8929 C   0  0  0  0  0  0  0  0  0  0  0  0
    7.3827    2.5724   20.5432 C   0  0  0  0  0  0  0  0  0  0  0  0
   11.1529    7.2750   20.8025 C   0  0  0  0  0  0  0  0  0  0  0  0
   10.2573    8.3215   20.9827 C   0  0  0  0  0  0  0  0  0  0  0  0
   11.1606    5.9378   21.2366 N   0  0  0  0  0  0  0  0  0  0  0  0
    9.8932   11.6736   19.0677 O   0  0  0  0  0  0  0  0  0  0  0  0
    6.4470    4.5850   22.2321 C   0  0  0  0  0  0  0  0  0  0  0  0
    8.4619    6.9895   22.2968 C   0  0  0  0  0  0  0  0  0  0  0  0
   12.2747    7.5102   20.0420 C   0  0  0  0  0  0  0  0  0  0  0  0
   14.2544    6.2142   19.4191 C   0  0  0  0  0  0  0  0  0  0  0  0
   13.0695    6.3705   20.0375 N   0  0  0  0  0  0  0  0  0  0  0  0
    9.1913    8.0876   21.8361 N   0  0  0  0  0  0  0  0  0  0  0  0
   10.4739    9.4813   20.2889 C   0  0  0  0  0  0  0  0  0  0  0  0
    7.5551    7.1270   23.1200 O   0  0  0  0  0  0  0  0  0  0  0  0
  1 11  4  0
  1 21  4  0
  2  4  1  0
  2  8  1  0
  2 11  1  0
  3 10  4  0
  3 14  4  0
  4  5  1  0
  4 18  2  0
  6 12  1  0
  6 17  4  0
  6 23  4  0
  7  9  1  0
  7 13  4  0
  7 19  4  0
  9 20  1  0
 10 19  4  0
 11 25  4  0
 13 14  4  0
 15 16  4  0
 15 17  4  0
 15 21  4  0
 16 24  1  0
 16 25  4  0
 20 24  1  0
 20 26  2  0
 21 23  4  0
 22 23  1  0
M  END
$$$$

 Created by Python create_sdf_string function

 26 28  0  0  0  0  0  0  0  0999 V2000
   12.4616    8.6700   19.4180 N   0  0  0  0  0  0  0  0  0  0  0  0
   11.8329   10.8148   18.6769 N   0  0  0  0  0  0  0  0  0  0  0  0
    6.1021    2.5564   21.0678 C   0  0  0  0  0  0  0  0  0  0  0  0
   10.9097   11.8051   18.4804 C   0  0  0  0  0  0  0  0  0  0  0  0
   11.2280   12.9135   17.5669 C   0  0  0  0  0  0  0  0  0  0  0  0
   12.3782    5.4231   20.7777 C   0  0  0  0  0  0  0  0  0  0  0  0
    7.7365    4.6508   21.6987 C   0  0  0  0  0  0  0  0  0  0  0  0
   13.0186   11.0102   18.0020 C   0  0  0  0  0  0  0  0  0  0  0  0
    8.6628    5.7088   21.8871 N   0  0  0  0  0  0  0  0  0  0  0  0
    5.6516    3.5258   21.9140 C   0  0  0  0  0  0  0  0  0  0  0  0
   11.5863    9.6815   19.4539 C   0  0  0  0  0  0  0  0  0  0  0  0
   12.9648    4.1543   20.9205 C   0  0  0  0  0  0  0  0  0  0  0  0
    8.2089    3.6265   20.8929 C   0  0  0  0  0  0  0  0  0  0  0  0
    7.3827    2.5724   20.5432 C   0  0  0  0  0  0  0  0  0  0  0  0
   11.1529    7.2750   20.8025 C   0  0  0  0  0  0  0  0  0  0  0  0
   10.2573    8.3215   20.9827 C   0  0  0  0  0  0  0  0  0  0  0  0
   11.1606    5.9378   21.2366 N   0  0  0  0  0  0  0  0  0  0  0  0
    9.8932   11.6736   19.0677 O   0  0  0  0  0  0  0  0  0  0  0  0
    6.4470    4.5850   22.2321 C   0  0  0  0  0  0  0  0  0  0  0  0
    8.4619    6.9895   22.2968 C   0  0  0  0  0  0  0  0  0  0  0  0
   12.2747    7.5102   20.0420 C   0  0  0  0  0  0  0  0  0  0  0  0
   14.2544    6.2142   19.4191 C   0  0  0  0  0  0  0  0  0  0  0  0
   13.0695    6.3705   20.0375 N   0  0  0  0  0  0  0  0  0  0  0  0
    9.1913    8.0876   21.8361 N   0  0  0  0  0  0  0  0  0  0  0  0
   10.4739    9.4813   20.2889 C   0  0  0  0  0  0  0  0  0  0  0  0
    7.5551    7.1270   23.1200 O   0  0  0  0  0  0  0  0  0  0  0  0
  1 11  4  0
  1 21  4  0
  2  4  1  0
  2  8  1  0
  2 11  1  0
  3 10  4  0
  3 14  4  0
  4  5  1  0
  4 18  2  0
  6 12  1  0
  6 17  4  0
  6 23  4  0
  7  9  1  0
  7 13  4  0
  7 19  4  0
  9 20  1  0
 10 19  4  0
 11 25  4  0
 13 14  4  0
 15 16  4  0
 15 17  4  0
 15 21  4  0
 16 24  1  0
 16 25  4  0
 20 24  1  0
 20 26  2  0
 21 23  4  0
 22 23  1  0
M  END
$$$$

 Created by Python create_sdf_string function

 26 28  0  0  0  0  0  0  0  0999 V2000
   12.4616    8.6700   19.4180 N   0  0  0  0  0  0  0  0  0  0  0  0
   11.8329   10.8148   18.6769 N   0  0  0  0  0  0  0  0  0  0  0  0
    6.1021    2.5564   21.0678 C   0  0  0  0  0  0  0  0  0  0  0  0
   10.9097   11.8051   18.4804 C   0  0  0  0  0  0  0  0  0  0  0  0
   11.2280   12.9135   17.5669 C   0  0  0  0  0  0  0  0  0  0  0  0
   12.3782    5.4231   20.7777 C   0  0  0  0  0  0  0  0  0  0  0  0
    7.7365    4.6508   21.6987 C   0  0  0  0  0  0  0  0  0  0  0  0
   13.0186   11.0102   18.0020 C   0  0  0  0  0  0  0  0  0  0  0  0
    8.6628    5.7088   21.8871 N   0  0  0  0  0  0  0  0  0  0  0  0
    5.6516    3.5258   21.9140 C   0  0  0  0  0  0  0  0  0  0  0  0
   11.5863    9.6815   19.4539 C   0  0  0  0  0  0  0  0  0  0  0  0
   12.9648    4.1543   20.9205 C   0  0  0  0  0  0  0  0  0  0  0  0
    8.2089    3.6265   20.8929 C   0  0  0  0  0  0  0  0  0  0  0  0
    7.3827    2.5724   20.5432 C   0  0  0  0  0  0  0  0  0  0  0  0
   11.1529    7.2750   20.8025 C   0  0  0  0  0  0  0  0  0  0  0  0
   10.2573    8.3215   20.9827 C   0  0  0  0  0  0  0  0  0  0  0  0
   11.1606    5.9378   21.2366 N   0  0  0  0  0  0  0  0  0  0  0  0
    9.8932   11.6736   19.0677 O   0  0  0  0  0  0  0  0  0  0  0  0
    6.4470    4.5850   22.2321 C   0  0  0  0  0  0  0  0  0  0  0  0
    8.4619    6.9895   22.2968 C   0  0  0  0  0  0  0  0  0  0  0  0
   12.2747    7.5102   20.0420 C   0  0  0  0  0  0  0  0  0  0  0  0
   14.2544    6.2142   19.4191 C   0  0  0  0  0  0  0  0  0  0  0  0
   13.0695    6.3705   20.0375 N   0  0  0  0  0  0  0  0  0  0  0  0
    9.1913    8.0876   21.8361 N   0  0  0  0  0  0  0  0  0  0  0  0
   10.4739    9.4813   20.2889 C   0  0  0  0  0  0  0  0  0  0  0  0
    7.5551    7.1270   23.1200 O   0  0  0  0  0  0  0  0  0  0  0  0
  1 11  4  0
  1 21  4  0
  2  4  1  0
  2  8  1  0
  2 11  1  0
  3 10  4  0
  3 14  4  0
  4  5  1  0
  4 18  2  0
  6 12  1  0
  6 17  4  0
  6 23  4  0
  7  9  1  0
  7 13  4  0
  7 19  4  0
  9 20  1  0
 10 19  4  0
 11 25  4  0
 13 14  4  0
 15 16  4  0
 15 17  4  0
 15 21  4  0
 16 24  1  0
 16 25  4  0
 20 24  1  0
 20 26  2  0
 21 23  4  0
 22 23  1  0
M  END
$$$$

 Created by Python create_sdf_string function

 26 28  0  0  0  0  0  0  0  0999 V2000
   12.4616    8.6700   19.4180 N   0  0  0  0  0  0  0  0  0  0  0  0
   11.8329   10.8148   18.6769 N   0  0  0  0  0  0  0  0  0  0  0  0
    6.1021    2.5564   21.0678 C   0  0  0  0  0  0  0  0  0  0  0  0
   10.9097   11.8051   18.4804 C   0  0  0  0  0  0  0  0  0  0  0  0
   11.2280   12.9135   17.5669 C   0  0  0  0  0  0  0  0  0  0  0  0
   12.3782    5.4231   20.7777 C   0  0  0  0  0  0  0  0  0  0  0  0
    7.7365    4.6508   21.6987 C   0  0  0  0  0  0  0  0  0  0  0  0
   13.0186   11.0102   18.0020 C   0  0  0  0  0  0  0  0  0  0  0  0
    8.6628    5.7088   21.8871 N   0  0  0  0  0  0  0  0  0  0  0  0
    5.6516    3.5258   21.9140 C   0  0  0  0  0  0  0  0  0  0  0  0
   11.5863    9.6815   19.4539 C   0  0  0  0  0  0  0  0  0  0  0  0
   12.9648    4.1543   20.9205 C   0  0  0  0  0  0  0  0  0  0  0  0
    8.2089    3.6265   20.8929 C   0  0  0  0  0  0  0  0  0  0  0  0
    7.3827    2.5724   20.5432 C   0  0  0  0  0  0  0  0  0  0  0  0
   11.1529    7.2750   20.8025 C   0  0  0  0  0  0  0  0  0  0  0  0
   10.2573    8.3215   20.9827 C   0  0  0  0  0  0  0  0  0  0  0  0
   11.1606    5.9378   21.2366 N   0  0  0  0  0  0  0  0  0  0  0  0
    9.8932   11.6736   19.0677 O   0  0  0  0  0  0  0  0  0  0  0  0
    6.4470    4.5850   22.2321 C   0  0  0  0  0  0  0  0  0  0  0  0
    8.4619    6.9895   22.2968 C   0  0  0  0  0  0  0  0  0  0  0  0
   12.2747    7.5102   20.0420 C   0  0  0  0  0  0  0  0  0  0  0  0
   14.2544    6.2142   19.4191 C   0  0  0  0  0  0  0  0  0  0  0  0
   13.0695    6.3705   20.0375 N   0  0  0  0  0  0  0  0  0  0  0  0
    9.1913    8.0876   21.8361 N   0  0  0  0  0  0  0  0  0  0  0  0
   10.4739    9.4813   20.2889 C   0  0  0  0  0  0  0  0  0  0  0  0
    7.5551    7.1270   23.1200 O   0  0  0  0  0  0  0  0  0  0  0  0
  1 11  4  0
  1 21  4  0
  2  4  1  0
  2  8  1  0
  2 11  1  0
  3 10  4  0
  3 14  4  0
  4  5  1  0
  4 18  2  0
  6 12  1  0
  6 17  4  0
  6 23  4  0
  7  9  1  0
  7 13  4  0
  7 19  4  0
  9 20  1  0
 10 19  4  0
 11 25  4  0
 13 14  4  0
 15 16  4  0
 15 17  4  0
 15 21  4  0
 16 24  1  0
 16 25  4  0
 20 24  1  0
 20 26  2  0
 21 23  4  0
 22 23  1  0
M  END
$$$$

 Created by Python create_sdf_string function

 26 28  0  0  0  0  0  0  0  0999 V2000
   12.4616    8.6700   19.4180 N   0  0  0  0  0  0  0  0  0  0  0  0
   11.8329   10.8148   18.6769 N   0  0  0  0  0  0  0  0  0  0  0  0
    6.1021    2.5564   21.0678 C   0  0  0  0  0  0  0  0  0  0  0  0
   10.9097   11.8051   18.4804 C   0  0  0  0  0  0  0  0  0  0  0  0
   11.2280   12.9135   17.5669 C   0  0  0  0  0  0  0  0  0  0  0  0
   12.3782    5.4231   20.7777 C   0  0  0  0  0  0  0  0  0  0  0  0
    7.7365    4.6508   21.6987 C   0  0  0  0  0  0  0  0  0  0  0  0
   13.0186   11.0102   18.0020 C   0  0  0  0  0  0  0  0  0  0  0  0
    8.6628    5.7088   21.8871 N   0  0  0  0  0  0  0  0  0  0  0  0
    5.6516    3.5258   21.9140 C   0  0  0  0  0  0  0  0  0  0  0  0
   11.5863    9.6815   19.4539 C   0  0  0  0  0  0  0  0  0  0  0  0
   12.9648    4.1543   20.9205 C   0  0  0  0  0  0  0  0  0  0  0  0
    8.2089    3.6265   20.8929 C   0  0  0  0  0  0  0  0  0  0  0  0
    7.3827    2.5724   20.5432 C   0  0  0  0  0  0  0  0  0  0  0  0
   11.1529    7.2750   20.8025 C   0  0  0  0  0  0  0  0  0  0  0  0
   10.2573    8.3215   20.9827 C   0  0  0  0  0  0  0  0  0  0  0  0
   11.1606    5.9378   21.2366 N   0  0  0  0  0  0  0  0  0  0  0  0
    9.8932   11.6736   19.0677 O   0  0  0  0  0  0  0  0  0  0  0  0
    6.4470    4.5850   22.2321 C   0  0  0  0  0  0  0  0  0  0  0  0
    8.4619    6.9895   22.2968 C   0  0  0  0  0  0  0  0  0  0  0  0
   12.2747    7.5102   20.0420 C   0  0  0  0  0  0  0  0  0  0  0  0
   14.2544    6.2142   19.4191 C   0  0  0  0  0  0  0  0  0  0  0  0
   13.0695    6.3705   20.0375 N   0  0  0  0  0  0  0  0  0  0  0  0
    9.1913    8.0876   21.8361 N   0  0  0  0  0  0  0  0  0  0  0  0
   10.4739    9.4813   20.2889 C   0  0  0  0  0  0  0  0  0  0  0  0
    7.5551    7.1270   23.1200 O   0  0  0  0  0  0  0  0  0  0  0  0
  1 11  4  0
  1 21  4  0
  2  4  1  0
  2  8  1  0
  2 11  1  0
  3 10  4  0
  3 14  4  0
  4  5  1  0
  4 18  2  0
  6 12  1  0
  6 17  4  0
  6 23  4  0
  7  9  1  0
  7 13  4  0
  7 19  4  0
  9 20  1  0
 10 19  4  0
 11 25  4  0
 13 14  4  0
 15 16  4  0
 15 17  4  0
 15 21  4  0
 16 24  1  0
 16 25  4  0
 20 24  1  0
 20 26  2  0
 21 23  4  0
 22 23  1  0
M  END
$$$$

 Created by Python create_sdf_string function

 26 28  0  0  0  0  0  0  0  0999 V2000
   12.4616    8.6700   19.4180 N   0  0  0  0  0  0  0  0  0  0  0  0
   11.8329   10.8148   18.6769 N   0  0  0  0  0  0  0  0  0  0  0  0
    6.1021    2.5564   21.0678 C   0  0  0  0  0  0  0  0  0  0  0  0
   10.9097   11.8051   18.4804 C   0  0  0  0  0  0  0  0  0  0  0  0
   11.2280   12.9135   17.5669 C   0  0  0  0  0  0  0  0  0  0  0  0
   12.3782    5.4231   20.7777 C   0  0  0  0  0  0  0  0  0  0  0  0
    7.7365    4.6508   21.6987 C   0  0  0  0  0  0  0  0  0  0  0  0
   13.0186   11.0102   18.0020 C   0  0  0  0  0  0  0  0  0  0  0  0
    8.6628    5.7088   21.8871 N   0  0  0  0  0  0  0  0  0  0  0  0
    5.6516    3.5258   21.9140 C   0  0  0  0  0  0  0  0  0  0  0  0
   11.5863    9.6815   19.4539 C   0  0  0  0  0  0  0  0  0  0  0  0
   12.9648    4.1543   20.9205 C   0  0  0  0  0  0  0  0  0  0  0  0
    8.2089    3.6265   20.8929 C   0  0  0  0  0  0  0  0  0  0  0  0
    7.3827    2.5724   20.5432 C   0  0  0  0  0  0  0  0  0  0  0  0
   11.1529    7.2750   20.8025 C   0  0  0  0  0  0  0  0  0  0  0  0
   10.2573    8.3215   20.9827 C   0  0  0  0  0  0  0  0  0  0  0  0
   11.1606    5.9378   21.2366 N   0  0  0  0  0  0  0  0  0  0  0  0
    9.8932   11.6736   19.0677 O   0  0  0  0  0  0  0  0  0  0  0  0
    6.4470    4.5850   22.2321 C   0  0  0  0  0  0  0  0  0  0  0  0
    8.4619    6.9895   22.2968 C   0  0  0  0  0  0  0  0  0  0  0  0
   12.2747    7.5102   20.0420 C   0  0  0  0  0  0  0  0  0  0  0  0
   14.2544    6.2142   19.4191 C   0  0  0  0  0  0  0  0  0  0  0  0
   13.0695    6.3705   20.0375 N   0  0  0  0  0  0  0  0  0  0  0  0
    9.1913    8.0876   21.8361 N   0  0  0  0  0  0  0  0  0  0  0  0
   10.4739    9.4813   20.2889 C   0  0  0  0  0  0  0  0  0  0  0  0
    7.5551    7.1270   23.1200 O   0  0  0  0  0  0  0  0  0  0  0  0
  1 11  4  0
  1 21  4  0
  2  4  1  0
  2  8  1  0
  2 11  1  0
  3 10  4  0
  3 14  4  0
  4  5  1  0
  4 18  2  0
  6 12  1  0
  6 17  4  0
  6 23  4  0
  7  9  1  0
  7 13  4  0
  7 19  4  0
  9 20  1  0
 10 19  4  0
 11 25  4  0
 13 14  4  0
 15 16  4  0
 15 17  4  0
 15 21  4  0
 16 24  1  0
 16 25  4  0
 20 24  1  0
 20 26  2  0
 21 23  4  0
 22 23  1  0
M  END
$$$$

 Created by Python create_sdf_string function

 26 28  0  0  0  0  0  0  0  0999 V2000
   12.4616    8.6700   19.4180 N   0  0  0  0  0  0  0  0  0  0  0  0
   11.8329   10.8148   18.6769 N   0  0  0  0  0  0  0  0  0  0  0  0
    6.1021    2.5564   21.0678 C   0  0  0  0  0  0  0  0  0  0  0  0
   10.9097   11.8051   18.4804 C   0  0  0  0  0  0  0  0  0  0  0  0
   11.2280   12.9135   17.5669 C   0  0  0  0  0  0  0  0  0  0  0  0
   12.3782    5.4231   20.7777 C   0  0  0  0  0  0  0  0  0  0  0  0
    7.7365    4.6508   21.6987 C   0  0  0  0  0  0  0  0  0  0  0  0
   13.0186   11.0102   18.0020 C   0  0  0  0  0  0  0  0  0  0  0  0
    8.6628    5.7088   21.8871 N   0  0  0  0  0  0  0  0  0  0  0  0
    5.6516    3.5258   21.9140 C   0  0  0  0  0  0  0  0  0  0  0  0
   11.5863    9.6815   19.4539 C   0  0  0  0  0  0  0  0  0  0  0  0
   12.9648    4.1543   20.9205 C   0  0  0  0  0  0  0  0  0  0  0  0
    8.2089    3.6265   20.8929 C   0  0  0  0  0  0  0  0  0  0  0  0
    7.3827    2.5724   20.5432 C   0  0  0  0  0  0  0  0  0  0  0  0
   11.1529    7.2750   20.8025 C   0  0  0  0  0  0  0  0  0  0  0  0
   10.2573    8.3215   20.9827 C   0  0  0  0  0  0  0  0  0  0  0  0
   11.1606    5.9378   21.2366 N   0  0  0  0  0  0  0  0  0  0  0  0
    9.8932   11.6736   19.0677 O   0  0  0  0  0  0  0  0  0  0  0  0
    6.4470    4.5850   22.2321 C   0  0  0  0  0  0  0  0  0  0  0  0
    8.4619    6.9895   22.2968 C   0  0  0  0  0  0  0  0  0  0  0  0
   12.2747    7.5102   20.0420 C   0  0  0  0  0  0  0  0  0  0  0  0
   14.2544    6.2142   19.4191 C   0  0  0  0  0  0  0  0  0  0  0  0
   13.0695    6.3705   20.0375 N   0  0  0  0  0  0  0  0  0  0  0  0
    9.1913    8.0876   21.8361 N   0  0  0  0  0  0  0  0  0  0  0  0
   10.4739    9.4813   20.2889 C   0  0  0  0  0  0  0  0  0  0  0  0
    7.5551    7.1270   23.1200 O   0  0  0  0  0  0  0  0  0  0  0  0
  1 11  4  0
  1 21  4  0
  2  4  1  0
  2  8  1  0
  2 11  1  0
  3 10  4  0
  3 14  4  0
  4  5  1  0
  4 18  2  0
  6 12  1  0
  6 17  4  0
  6 23  4  0
  7  9  1  0
  7 13  4  0
  7 19  4  0
  9 20  1  0
 10 19  4  0
 11 25  4  0
 13 14  4  0
 15 16  4  0
 15 17  4  0
 15 21  4  0
 16 24  1  0
 16 25  4  0
 20 24  1  0
 20 26  2  0
 21 23  4  0
 22 23  1  0
M  END
$$$$

 Created by Python create_sdf_string function

 26 28  0  0  0  0  0  0  0  0999 V2000
   12.4616    8.6700   19.4180 N   0  0  0  0  0  0  0  0  0  0  0  0
   11.8329   10.8148   18.6769 N   0  0  0  0  0  0  0  0  0  0  0  0
    6.1021    2.5564   21.0678 C   0  0  0  0  0  0  0  0  0  0  0  0
   10.9097   11.8051   18.4804 C   0  0  0  0  0  0  0  0  0  0  0  0
   11.2280   12.9135   17.5669 C   0  0  0  0  0  0  0  0  0  0  0  0
   12.3782    5.4231   20.7777 C   0  0  0  0  0  0  0  0  0  0  0  0
    7.7365    4.6508   21.6987 C   0  0  0  0  0  0  0  0  0  0  0  0
   13.0186   11.0102   18.0020 C   0  0  0  0  0  0  0  0  0  0  0  0
    8.6628    5.7088   21.8871 N   0  0  0  0  0  0  0  0  0  0  0  0
    5.6516    3.5258   21.9140 C   0  0  0  0  0  0  0  0  0  0  0  0
   11.5863    9.6815   19.4539 C   0  0  0  0  0  0  0  0  0  0  0  0
   12.9648    4.1543   20.9205 C   0  0  0  0  0  0  0  0  0  0  0  0
    8.2089    3.6265   20.8929 C   0  0  0  0  0  0  0  0  0  0  0  0
    7.3827    2.5724   20.5432 C   0  0  0  0  0  0  0  0  0  0  0  0
   11.1529    7.2750   20.8025 C   0  0  0  0  0  0  0  0  0  0  0  0
   10.2573    8.3215   20.9827 C   0  0  0  0  0  0  0  0  0  0  0  0
   11.1606    5.9378   21.2366 N   0  0  0  0  0  0  0  0  0  0  0  0
    9.8932   11.6736   19.0677 O   0  0  0  0  0  0  0  0  0  0  0  0
    6.4470    4.5850   22.2321 C   0  0  0  0  0  0  0  0  0  0  0  0
    8.4619    6.9895   22.2968 C   0  0  0  0  0  0  0  0  0  0  0  0
   12.2747    7.5102   20.0420 C   0  0  0  0  0  0  0  0  0  0  0  0
   14.2544    6.2142   19.4191 C   0  0  0  0  0  0  0  0  0  0  0  0
   13.0695    6.3705   20.0375 N   0  0  0  0  0  0  0  0  0  0  0  0
    9.1913    8.0876   21.8361 N   0  0  0  0  0  0  0  0  0  0  0  0
   10.4739    9.4813   20.2889 C   0  0  0  0  0  0  0  0  0  0  0  0
    7.5551    7.1270   23.1200 O   0  0  0  0  0  0  0  0  0  0  0  0
  1 11  4  0
  1 21  4  0
  2  4  1  0
  2  8  1  0
  2 11  1  0
  3 10  4  0
  3 14  4  0
  4  5  1  0
  4 18  2  0
  6 12  1  0
  6 17  4  0
  6 23  4  0
  7  9  1  0
  7 13  4  0
  7 19  4  0
  9 20  1  0
 10 19  4  0
 11 25  4  0
 13 14  4  0
 15 16  4  0
 15 17  4  0
 15 21  4  0
 16 24  1  0
 16 25  4  0
 20 24  1  0
 20 26  2  0
 21 23  4  0
 22 23  1  0
M  END
$$$$

 Created by Python create_sdf_string function

 26 28  0  0  0  0  0  0  0  0999 V2000
   12.4616    8.6700   19.4180 N   0  0  0  0  0  0  0  0  0  0  0  0
   11.8329   10.8148   18.6769 N   0  0  0  0  0  0  0  0  0  0  0  0
    6.1021    2.5564   21.0678 C   0  0  0  0  0  0  0  0  0  0  0  0
   10.9097   11.8051   18.4804 C   0  0  0  0  0  0  0  0  0  0  0  0
   11.2280   12.9135   17.5669 C   0  0  0  0  0  0  0  0  0  0  0  0
   12.3782    5.4231   20.7777 C   0  0  0  0  0  0  0  0  0  0  0  0
    7.7365    4.6508   21.6987 C   0  0  0  0  0  0  0  0  0  0  0  0
   13.0186   11.0102   18.0020 C   0  0  0  0  0  0  0  0  0  0  0  0
    8.6628    5.7088   21.8871 N   0  0  0  0  0  0  0  0  0  0  0  0
    5.6516    3.5258   21.9140 C   0  0  0  0  0  0  0  0  0  0  0  0
   11.5863    9.6815   19.4539 C   0  0  0  0  0  0  0  0  0  0  0  0
   12.9648    4.1543   20.9205 C   0  0  0  0  0  0  0  0  0  0  0  0
    8.2089    3.6265   20.8929 C   0  0  0  0  0  0  0  0  0  0  0  0
    7.3827    2.5724   20.5432 C   0  0  0  0  0  0  0  0  0  0  0  0
   11.1529    7.2750   20.8025 C   0  0  0  0  0  0  0  0  0  0  0  0
   10.2573    8.3215   20.9827 C   0  0  0  0  0  0  0  0  0  0  0  0
   11.1606    5.9378   21.2366 N   0  0  0  0  0  0  0  0  0  0  0  0
    9.8932   11.6736   19.0677 O   0  0  0  0  0  0  0  0  0  0  0  0
    6.4470    4.5850   22.2321 C   0  0  0  0  0  0  0  0  0  0  0  0
    8.4619    6.9895   22.2968 C   0  0  0  0  0  0  0  0  0  0  0  0
   12.2747    7.5102   20.0420 C   0  0  0  0  0  0  0  0  0  0  0  0
   14.2544    6.2142   19.4191 C   0  0  0  0  0  0  0  0  0  0  0  0
   13.0695    6.3705   20.0375 N   0  0  0  0  0  0  0  0  0  0  0  0
    9.1913    8.0876   21.8361 N   0  0  0  0  0  0  0  0  0  0  0  0
   10.4739    9.4813   20.2889 C   0  0  0  0  0  0  0  0  0  0  0  0
    7.5551    7.1270   23.1200 O   0  0  0  0  0  0  0  0  0  0  0  0
  1 11  4  0
  1 21  4  0
  2  4  1  0
  2  8  1  0
  2 11  1  0
  3 10  4  0
  3 14  4  0
  4  5  1  0
  4 18  2  0
  6 12  1  0
  6 17  4  0
  6 23  4  0
  7  9  1  0
  7 13  4  0
  7 19  4  0
  9 20  1  0
 10 19  4  0
 11 25  4  0
 13 14  4  0
 15 16  4  0
 15 17  4  0
 15 21  4  0
 16 24  1  0
 16 25  4  0
 20 24  1  0
 20 26  2  0
 21 23  4  0
 22 23  1  0
M  END
$$$$

 Created by Python create_sdf_string function

 26 28  0  0  0  0  0  0  0  0999 V2000
   12.4616    8.6700   19.4180 N   0  0  0  0  0  0  0  0  0  0  0  0
   11.8329   10.8148   18.6769 N   0  0  0  0  0  0  0  0  0  0  0  0
    6.1021    2.5564   21.0678 C   0  0  0  0  0  0  0  0  0  0  0  0
   10.9097   11.8051   18.4804 C   0  0  0  0  0  0  0  0  0  0  0  0
   11.2280   12.9135   17.5669 C   0  0  0  0  0  0  0  0  0  0  0  0
   12.3782    5.4231   20.7777 C   0  0  0  0  0  0  0  0  0  0  0  0
    7.7365    4.6508   21.6987 C   0  0  0  0  0  0  0  0  0  0  0  0
   13.0186   11.0102   18.0020 C   0  0  0  0  0  0  0  0  0  0  0  0
    8.6628    5.7088   21.8871 N   0  0  0  0  0  0  0  0  0  0  0  0
    5.6516    3.5258   21.9140 C   0  0  0  0  0  0  0  0  0  0  0  0
   11.5863    9.6815   19.4539 C   0  0  0  0  0  0  0  0  0  0  0  0
   12.9648    4.1543   20.9205 C   0  0  0  0  0  0  0  0  0  0  0  0
    8.2089    3.6265   20.8929 C   0  0  0  0  0  0  0  0  0  0  0  0
    7.3827    2.5724   20.5432 C   0  0  0  0  0  0  0  0  0  0  0  0
   11.1529    7.2750   20.8025 C   0  0  0  0  0  0  0  0  0  0  0  0
   10.2573    8.3215   20.9827 C   0  0  0  0  0  0  0  0  0  0  0  0
   11.1606    5.9378   21.2366 N   0  0  0  0  0  0  0  0  0  0  0  0
    9.8932   11.6736   19.0677 O   0  0  0  0  0  0  0  0  0  0  0  0
    6.4470    4.5850   22.2321 C   0  0  0  0  0  0  0  0  0  0  0  0
    8.4619    6.9895   22.2968 C   0  0  0  0  0  0  0  0  0  0  0  0
   12.2747    7.5102   20.0420 C   0  0  0  0  0  0  0  0  0  0  0  0
   14.2544    6.2142   19.4191 C   0  0  0  0  0  0  0  0  0  0  0  0
   13.0695    6.3705   20.0375 N   0  0  0  0  0  0  0  0  0  0  0  0
    9.1913    8.0876   21.8361 N   0  0  0  0  0  0  0  0  0  0  0  0
   10.4739    9.4813   20.2889 C   0  0  0  0  0  0  0  0  0  0  0  0
    7.5551    7.1270   23.1200 O   0  0  0  0  0  0  0  0  0  0  0  0
  1 11  4  0
  1 21  4  0
  2  4  1  0
  2  8  1  0
  2 11  1  0
  3 10  4  0
  3 14  4  0
  4  5  1  0
  4 18  2  0
  6 12  1  0
  6 17  4  0
  6 23  4  0
  7  9  1  0
  7 13  4  0
  7 19  4  0
  9 20  1  0
 10 19  4  0
 11 25  4  0
 13 14  4  0
 15 16  4  0
 15 17  4  0
 15 21  4  0
 16 24  1  0
 16 25  4  0
 20 24  1  0
 20 26  2  0
 21 23  4  0
 22 23  1  0
M  END
$$$$

 Created by Python create_sdf_string function

 26 28  0  0  0  0  0  0  0  0999 V2000
   12.4616    8.6700   19.4180 N   0  0  0  0  0  0  0  0  0  0  0  0
   11.8329   10.8148   18.6769 N   0  0  0  0  0  0  0  0  0  0  0  0
    6.1021    2.5564   21.0678 C   0  0  0  0  0  0  0  0  0  0  0  0
   10.9097   11.8051   18.4804 C   0  0  0  0  0  0  0  0  0  0  0  0
   11.2280   12.9135   17.5669 C   0  0  0  0  0  0  0  0  0  0  0  0
   12.3782    5.4231   20.7777 C   0  0  0  0  0  0  0  0  0  0  0  0
    7.7365    4.6508   21.6987 C   0  0  0  0  0  0  0  0  0  0  0  0
   13.0186   11.0102   18.0020 C   0  0  0  0  0  0  0  0  0  0  0  0
    8.6628    5.7088   21.8871 N   0  0  0  0  0  0  0  0  0  0  0  0
    5.6516    3.5258   21.9140 C   0  0  0  0  0  0  0  0  0  0  0  0
   11.5863    9.6815   19.4539 C   0  0  0  0  0  0  0  0  0  0  0  0
   12.9648    4.1543   20.9205 C   0  0  0  0  0  0  0  0  0  0  0  0
    8.2089    3.6265   20.8929 C   0  0  0  0  0  0  0  0  0  0  0  0
    7.3827    2.5724   20.5432 C   0  0  0  0  0  0  0  0  0  0  0  0
   11.1529    7.2750   20.8025 C   0  0  0  0  0  0  0  0  0  0  0  0
   10.2573    8.3215   20.9827 C   0  0  0  0  0  0  0  0  0  0  0  0
   11.1606    5.9378   21.2366 N   0  0  0  0  0  0  0  0  0  0  0  0
    9.8932   11.6736   19.0677 O   0  0  0  0  0  0  0  0  0  0  0  0
    6.4470    4.5850   22.2321 C   0  0  0  0  0  0  0  0  0  0  0  0
    8.4619    6.9895   22.2968 C   0  0  0  0  0  0  0  0  0  0  0  0
   12.2747    7.5102   20.0420 C   0  0  0  0  0  0  0  0  0  0  0  0
   14.2544    6.2142   19.4191 C   0  0  0  0  0  0  0  0  0  0  0  0
   13.0695    6.3705   20.0375 N   0  0  0  0  0  0  0  0  0  0  0  0
    9.1913    8.0876   21.8361 N   0  0  0  0  0  0  0  0  0  0  0  0
   10.4739    9.4813   20.2889 C   0  0  0  0  0  0  0  0  0  0  0  0
    7.5551    7.1270   23.1200 O   0  0  0  0  0  0  0  0  0  0  0  0
  1 11  4  0
  1 21  4  0
  2  4  1  0
  2  8  1  0
  2 11  1  0
  3 10  4  0
  3 14  4  0
  4  5  1  0
  4 18  2  0
  6 12  1  0
  6 17  4  0
  6 23  4  0
  7  9  1  0
  7 13  4  0
  7 19  4  0
  9 20  1  0
 10 19  4  0
 11 25  4  0
 13 14  4  0
 15 16  4  0
 15 17  4  0
 15 21  4  0
 16 24  1  0
 16 25  4  0
 20 24  1  0
 20 26  2  0
 21 23  4  0
 22 23  1  0
M  END
$$$$

 Created by Python create_sdf_string function

 26 28  0  0  0  0  0  0  0  0999 V2000
   12.4616    8.6700   19.4180 N   0  0  0  0  0  0  0  0  0  0  0  0
   11.8329   10.8148   18.6769 N   0  0  0  0  0  0  0  0  0  0  0  0
    6.1021    2.5564   21.0678 C   0  0  0  0  0  0  0  0  0  0  0  0
   10.9097   11.8051   18.4804 C   0  0  0  0  0  0  0  0  0  0  0  0
   11.2280   12.9135   17.5669 C   0  0  0  0  0  0  0  0  0  0  0  0
   12.3782    5.4231   20.7777 C   0  0  0  0  0  0  0  0  0  0  0  0
    7.7365    4.6508   21.6987 C   0  0  0  0  0  0  0  0  0  0  0  0
   13.0186   11.0102   18.0020 C   0  0  0  0  0  0  0  0  0  0  0  0
    8.6628    5.7088   21.8871 N   0  0  0  0  0  0  0  0  0  0  0  0
    5.6516    3.5258   21.9140 C   0  0  0  0  0  0  0  0  0  0  0  0
   11.5863    9.6815   19.4539 C   0  0  0  0  0  0  0  0  0  0  0  0
   12.9648    4.1543   20.9205 C   0  0  0  0  0  0  0  0  0  0  0  0
    8.2089    3.6265   20.8929 C   0  0  0  0  0  0  0  0  0  0  0  0
    7.3827    2.5724   20.5432 C   0  0  0  0  0  0  0  0  0  0  0  0
   11.1529    7.2750   20.8025 C   0  0  0  0  0  0  0  0  0  0  0  0
   10.2573    8.3215   20.9827 C   0  0  0  0  0  0  0  0  0  0  0  0
   11.1606    5.9378   21.2366 N   0  0  0  0  0  0  0  0  0  0  0  0
    9.8932   11.6736   19.0677 O   0  0  0  0  0  0  0  0  0  0  0  0
    6.4470    4.5850   22.2321 C   0  0  0  0  0  0  0  0  0  0  0  0
    8.4619    6.9895   22.2968 C   0  0  0  0  0  0  0  0  0  0  0  0
   12.2747    7.5102   20.0420 C   0  0  0  0  0  0  0  0  0  0  0  0
   14.2544    6.2142   19.4191 C   0  0  0  0  0  0  0  0  0  0  0  0
   13.0695    6.3705   20.0375 N   0  0  0  0  0  0  0  0  0  0  0  0
    9.1913    8.0876   21.8361 N   0  0  0  0  0  0  0  0  0  0  0  0
   10.4739    9.4813   20.2889 C   0  0  0  0  0  0  0  0  0  0  0  0
    7.5551    7.1270   23.1200 O   0  0  0  0  0  0  0  0  0  0  0  0
  1 11  4  0
  1 21  4  0
  2  4  1  0
  2  8  1  0
  2 11  1  0
  3 10  4  0
  3 14  4  0
  4  5  1  0
  4 18  2  0
  6 12  1  0
  6 17  4  0
  6 23  4  0
  7  9  1  0
  7 13  4  0
  7 19  4  0
  9 20  1  0
 10 19  4  0
 11 25  4  0
 13 14  4  0
 15 16  4  0
 15 17  4  0
 15 21  4  0
 16 24  1  0
 16 25  4  0
 20 24  1  0
 20 26  2  0
 21 23  4  0
 22 23  1  0
M  END
$$$$

 Created by Python create_sdf_string function

 26 28  0  0  0  0  0  0  0  0999 V2000
   12.4616    8.6700   19.4180 N   0  0  0  0  0  0  0  0  0  0  0  0
   11.8329   10.8148   18.6769 N   0  0  0  0  0  0  0  0  0  0  0  0
    6.1021    2.5564   21.0678 C   0  0  0  0  0  0  0  0  0  0  0  0
   10.9097   11.8051   18.4804 C   0  0  0  0  0  0  0  0  0  0  0  0
   11.2280   12.9135   17.5669 C   0  0  0  0  0  0  0  0  0  0  0  0
   12.3782    5.4231   20.7777 C   0  0  0  0  0  0  0  0  0  0  0  0
    7.7365    4.6508   21.6987 C   0  0  0  0  0  0  0  0  0  0  0  0
   13.0186   11.0102   18.0020 C   0  0  0  0  0  0  0  0  0  0  0  0
    8.6628    5.7088   21.8871 N   0  0  0  0  0  0  0  0  0  0  0  0
    5.6516    3.5258   21.9140 C   0  0  0  0  0  0  0  0  0  0  0  0
   11.5863    9.6815   19.4539 C   0  0  0  0  0  0  0  0  0  0  0  0
   12.9648    4.1543   20.9205 C   0  0  0  0  0  0  0  0  0  0  0  0
    8.2089    3.6265   20.8929 C   0  0  0  0  0  0  0  0  0  0  0  0
    7.3827    2.5724   20.5432 C   0  0  0  0  0  0  0  0  0  0  0  0
   11.1529    7.2750   20.8025 C   0  0  0  0  0  0  0  0  0  0  0  0
   10.2573    8.3215   20.9827 C   0  0  0  0  0  0  0  0  0  0  0  0
   11.1606    5.9378   21.2366 N   0  0  0  0  0  0  0  0  0  0  0  0
    9.8932   11.6736   19.0677 O   0  0  0  0  0  0  0  0  0  0  0  0
    6.4470    4.5850   22.2321 C   0  0  0  0  0  0  0  0  0  0  0  0
    8.4619    6.9895   22.2968 C   0  0  0  0  0  0  0  0  0  0  0  0
   12.2747    7.5102   20.0420 C   0  0  0  0  0  0  0  0  0  0  0  0
   14.2544    6.2142   19.4191 C   0  0  0  0  0  0  0  0  0  0  0  0
   13.0695    6.3705   20.0375 N   0  0  0  0  0  0  0  0  0  0  0  0
    9.1913    8.0876   21.8361 N   0  0  0  0  0  0  0  0  0  0  0  0
   10.4739    9.4813   20.2889 C   0  0  0  0  0  0  0  0  0  0  0  0
    7.5551    7.1270   23.1200 O   0  0  0  0  0  0  0  0  0  0  0  0
  1 11  4  0
  1 21  4  0
  2  4  1  0
  2  8  1  0
  2 11  1  0
  3 10  4  0
  3 14  4  0
  4  5  1  0
  4 18  2  0
  6 12  1  0
  6 17  4  0
  6 23  4  0
  7  9  1  0
  7 13  4  0
  7 19  4  0
  9 20  1  0
 10 19  4  0
 11 25  4  0
 13 14  4  0
 15 16  4  0
 15 17  4  0
 15 21  4  0
 16 24  1  0
 16 25  4  0
 20 24  1  0
 20 26  2  0
 21 23  4  0
 22 23  1  0
M  END
$$$$

 Created by Python create_sdf_string function

 26 28  0  0  0  0  0  0  0  0999 V2000
   12.4616    8.6700   19.4180 N   0  0  0  0  0  0  0  0  0  0  0  0
   11.8329   10.8148   18.6769 N   0  0  0  0  0  0  0  0  0  0  0  0
    6.1021    2.5564   21.0678 C   0  0  0  0  0  0  0  0  0  0  0  0
   10.9097   11.8051   18.4804 C   0  0  0  0  0  0  0  0  0  0  0  0
   11.2280   12.9135   17.5669 C   0  0  0  0  0  0  0  0  0  0  0  0
   12.3782    5.4231   20.7777 C   0  0  0  0  0  0  0  0  0  0  0  0
    7.7365    4.6508   21.6987 C   0  0  0  0  0  0  0  0  0  0  0  0
   13.0186   11.0102   18.0020 C   0  0  0  0  0  0  0  0  0  0  0  0
    8.6628    5.7088   21.8871 N   0  0  0  0  0  0  0  0  0  0  0  0
    5.6516    3.5258   21.9140 C   0  0  0  0  0  0  0  0  0  0  0  0
   11.5863    9.6815   19.4539 C   0  0  0  0  0  0  0  0  0  0  0  0
   12.9648    4.1543   20.9205 C   0  0  0  0  0  0  0  0  0  0  0  0
    8.2089    3.6265   20.8929 C   0  0  0  0  0  0  0  0  0  0  0  0
    7.3827    2.5724   20.5432 C   0  0  0  0  0  0  0  0  0  0  0  0
   11.1529    7.2750   20.8025 C   0  0  0  0  0  0  0  0  0  0  0  0
   10.2573    8.3215   20.9827 C   0  0  0  0  0  0  0  0  0  0  0  0
   11.1606    5.9378   21.2366 N   0  0  0  0  0  0  0  0  0  0  0  0
    9.8932   11.6736   19.0677 O   0  0  0  0  0  0  0  0  0  0  0  0
    6.4470    4.5850   22.2321 C   0  0  0  0  0  0  0  0  0  0  0  0
    8.4619    6.9895   22.2968 C   0  0  0  0  0  0  0  0  0  0  0  0
   12.2747    7.5102   20.0420 C   0  0  0  0  0  0  0  0  0  0  0  0
   14.2544    6.2142   19.4191 C   0  0  0  0  0  0  0  0  0  0  0  0
   13.0695    6.3705   20.0375 N   0  0  0  0  0  0  0  0  0  0  0  0
    9.1913    8.0876   21.8361 N   0  0  0  0  0  0  0  0  0  0  0  0
   10.4739    9.4813   20.2889 C   0  0  0  0  0  0  0  0  0  0  0  0
    7.5551    7.1270   23.1200 O   0  0  0  0  0  0  0  0  0  0  0  0
  1 11  4  0
  1 21  4  0
  2  4  1  0
  2  8  1  0
  2 11  1  0
  3 10  4  0
  3 14  4  0
  4  5  1  0
  4 18  2  0
  6 12  1  0
  6 17  4  0
  6 23  4  0
  7  9  1  0
  7 13  4  0
  7 19  4  0
  9 20  1  0
 10 19  4  0
 11 25  4  0
 13 14  4  0
 15 16  4  0
 15 17  4  0
 15 21  4  0
 16 24  1  0
 16 25  4  0
 20 24  1  0
 20 26  2  0
 21 23  4  0
 22 23  1  0
M  END
$$$$

 Created by Python create_sdf_string function

 26 28  0  0  0  0  0  0  0  0999 V2000
   12.4616    8.6700   19.4180 N   0  0  0  0  0  0  0  0  0  0  0  0
   11.8329   10.8148   18.6769 N   0  0  0  0  0  0  0  0  0  0  0  0
    6.1021    2.5564   21.0678 C   0  0  0  0  0  0  0  0  0  0  0  0
   10.9097   11.8051   18.4804 C   0  0  0  0  0  0  0  0  0  0  0  0
   11.2280   12.9135   17.5669 C   0  0  0  0  0  0  0  0  0  0  0  0
   12.3782    5.4231   20.7777 C   0  0  0  0  0  0  0  0  0  0  0  0
    7.7365    4.6508   21.6987 C   0  0  0  0  0  0  0  0  0  0  0  0
   13.0186   11.0102   18.0020 C   0  0  0  0  0  0  0  0  0  0  0  0
    8.6628    5.7088   21.8871 N   0  0  0  0  0  0  0  0  0  0  0  0
    5.6516    3.5258   21.9140 C   0  0  0  0  0  0  0  0  0  0  0  0
   11.5863    9.6815   19.4539 C   0  0  0  0  0  0  0  0  0  0  0  0
   12.9648    4.1543   20.9205 C   0  0  0  0  0  0  0  0  0  0  0  0
    8.2089    3.6265   20.8929 C   0  0  0  0  0  0  0  0  0  0  0  0
    7.3827    2.5724   20.5432 C   0  0  0  0  0  0  0  0  0  0  0  0
   11.1529    7.2750   20.8025 C   0  0  0  0  0  0  0  0  0  0  0  0
   10.2573    8.3215   20.9827 C   0  0  0  0  0  0  0  0  0  0  0  0
   11.1606    5.9378   21.2366 N   0  0  0  0  0  0  0  0  0  0  0  0
    9.8932   11.6736   19.0677 O   0  0  0  0  0  0  0  0  0  0  0  0
    6.4470    4.5850   22.2321 C   0  0  0  0  0  0  0  0  0  0  0  0
    8.4619    6.9895   22.2968 C   0  0  0  0  0  0  0  0  0  0  0  0
   12.2747    7.5102   20.0420 C   0  0  0  0  0  0  0  0  0  0  0  0
   14.2544    6.2142   19.4191 C   0  0  0  0  0  0  0  0  0  0  0  0
   13.0695    6.3705   20.0375 N   0  0  0  0  0  0  0  0  0  0  0  0
    9.1913    8.0876   21.8361 N   0  0  0  0  0  0  0  0  0  0  0  0
   10.4739    9.4813   20.2889 C   0  0  0  0  0  0  0  0  0  0  0  0
    7.5551    7.1270   23.1200 O   0  0  0  0  0  0  0  0  0  0  0  0
  1 11  4  0
  1 21  4  0
  2  4  1  0
  2  8  1  0
  2 11  1  0
  3 10  4  0
  3 14  4  0
  4  5  1  0
  4 18  2  0
  6 12  1  0
  6 17  4  0
  6 23  4  0
  7  9  1  0
  7 13  4  0
  7 19  4  0
  9 20  1  0
 10 19  4  0
 11 25  4  0
 13 14  4  0
 15 16  4  0
 15 17  4  0
 15 21  4  0
 16 24  1  0
 16 25  4  0
 20 24  1  0
 20 26  2  0
 21 23  4  0
 22 23  1  0
M  END
$$$$

 Created by Python create_sdf_string function

 26 28  0  0  0  0  0  0  0  0999 V2000
   12.4616    8.6700   19.4180 N   0  0  0  0  0  0  0  0  0  0  0  0
   11.8329   10.8148   18.6769 N   0  0  0  0  0  0  0  0  0  0  0  0
    6.1021    2.5564   21.0678 C   0  0  0  0  0  0  0  0  0  0  0  0
   10.9097   11.8051   18.4804 C   0  0  0  0  0  0  0  0  0  0  0  0
   11.2280   12.9135   17.5669 C   0  0  0  0  0  0  0  0  0  0  0  0
   12.3782    5.4231   20.7777 C   0  0  0  0  0  0  0  0  0  0  0  0
    7.7365    4.6508   21.6987 C   0  0  0  0  0  0  0  0  0  0  0  0
   13.0186   11.0102   18.0020 C   0  0  0  0  0  0  0  0  0  0  0  0
    8.6628    5.7088   21.8871 N   0  0  0  0  0  0  0  0  0  0  0  0
    5.6516    3.5258   21.9140 C   0  0  0  0  0  0  0  0  0  0  0  0
   11.5863    9.6815   19.4539 C   0  0  0  0  0  0  0  0  0  0  0  0
   12.9648    4.1543   20.9205 C   0  0  0  0  0  0  0  0  0  0  0  0
    8.2089    3.6265   20.8929 C   0  0  0  0  0  0  0  0  0  0  0  0
    7.3827    2.5724   20.5432 C   0  0  0  0  0  0  0  0  0  0  0  0
   11.1529    7.2750   20.8025 C   0  0  0  0  0  0  0  0  0  0  0  0
   10.2573    8.3215   20.9827 C   0  0  0  0  0  0  0  0  0  0  0  0
   11.1606    5.9378   21.2366 N   0  0  0  0  0  0  0  0  0  0  0  0
    9.8932   11.6736   19.0677 O   0  0  0  0  0  0  0  0  0  0  0  0
    6.4470    4.5850   22.2321 C   0  0  0  0  0  0  0  0  0  0  0  0
    8.4619    6.9895   22.2968 C   0  0  0  0  0  0  0  0  0  0  0  0
   12.2747    7.5102   20.0420 C   0  0  0  0  0  0  0  0  0  0  0  0
   14.2544    6.2142   19.4191 C   0  0  0  0  0  0  0  0  0  0  0  0
   13.0695    6.3705   20.0375 N   0  0  0  0  0  0  0  0  0  0  0  0
    9.1913    8.0876   21.8361 N   0  0  0  0  0  0  0  0  0  0  0  0
   10.4739    9.4813   20.2889 C   0  0  0  0  0  0  0  0  0  0  0  0
    7.5551    7.1270   23.1200 O   0  0  0  0  0  0  0  0  0  0  0  0
  1 11  4  0
  1 21  4  0
  2  4  1  0
  2  8  1  0
  2 11  1  0
  3 10  4  0
  3 14  4  0
  4  5  1  0
  4 18  2  0
  6 12  1  0
  6 17  4  0
  6 23  4  0
  7  9  1  0
  7 13  4  0
  7 19  4  0
  9 20  1  0
 10 19  4  0
 11 25  4  0
 13 14  4  0
 15 16  4  0
 15 17  4  0
 15 21  4  0
 16 24  1  0
 16 25  4  0
 20 24  1  0
 20 26  2  0
 21 23  4  0
 22 23  1  0
M  END
$$$$

 Created by Python create_sdf_string function

 26 28  0  0  0  0  0  0  0  0999 V2000
   12.4616    8.6700   19.4180 N   0  0  0  0  0  0  0  0  0  0  0  0
   11.8329   10.8148   18.6769 N   0  0  0  0  0  0  0  0  0  0  0  0
    6.1021    2.5564   21.0678 C   0  0  0  0  0  0  0  0  0  0  0  0
   10.9097   11.8051   18.4804 C   0  0  0  0  0  0  0  0  0  0  0  0
   11.2280   12.9135   17.5669 C   0  0  0  0  0  0  0  0  0  0  0  0
   12.3782    5.4231   20.7777 C   0  0  0  0  0  0  0  0  0  0  0  0
    7.7365    4.6508   21.6987 C   0  0  0  0  0  0  0  0  0  0  0  0
   13.0186   11.0102   18.0020 C   0  0  0  0  0  0  0  0  0  0  0  0
    8.6628    5.7088   21.8871 N   0  0  0  0  0  0  0  0  0  0  0  0
    5.6516    3.5258   21.9140 C   0  0  0  0  0  0  0  0  0  0  0  0
   11.5863    9.6815   19.4539 C   0  0  0  0  0  0  0  0  0  0  0  0
   12.9648    4.1543   20.9205 C   0  0  0  0  0  0  0  0  0  0  0  0
    8.2089    3.6265   20.8929 C   0  0  0  0  0  0  0  0  0  0  0  0
    7.3827    2.5724   20.5432 C   0  0  0  0  0  0  0  0  0  0  0  0
   11.1529    7.2750   20.8025 C   0  0  0  0  0  0  0  0  0  0  0  0
   10.2573    8.3215   20.9827 C   0  0  0  0  0  0  0  0  0  0  0  0
   11.1606    5.9378   21.2366 N   0  0  0  0  0  0  0  0  0  0  0  0
    9.8932   11.6736   19.0677 O   0  0  0  0  0  0  0  0  0  0  0  0
    6.4470    4.5850   22.2321 C   0  0  0  0  0  0  0  0  0  0  0  0
    8.4619    6.9895   22.2968 C   0  0  0  0  0  0  0  0  0  0  0  0
   12.2747    7.5102   20.0420 C   0  0  0  0  0  0  0  0  0  0  0  0
   14.2544    6.2142   19.4191 C   0  0  0  0  0  0  0  0  0  0  0  0
   13.0695    6.3705   20.0375 N   0  0  0  0  0  0  0  0  0  0  0  0
    9.1913    8.0876   21.8361 N   0  0  0  0  0  0  0  0  0  0  0  0
   10.4739    9.4813   20.2889 C   0  0  0  0  0  0  0  0  0  0  0  0
    7.5551    7.1270   23.1200 O   0  0  0  0  0  0  0  0  0  0  0  0
  1 11  4  0
  1 21  4  0
  2  4  1  0
  2  8  1  0
  2 11  1  0
  3 10  4  0
  3 14  4  0
  4  5  1  0
  4 18  2  0
  6 12  1  0
  6 17  4  0
  6 23  4  0
  7  9  1  0
  7 13  4  0
  7 19  4  0
  9 20  1  0
 10 19  4  0
 11 25  4  0
 13 14  4  0
 15 16  4  0
 15 17  4  0
 15 21  4  0
 16 24  1  0
 16 25  4  0
 20 24  1  0
 20 26  2  0
 21 23  4  0
 22 23  1  0
M  END
$$$$

 Created by Python create_sdf_string function

 26 28  0  0  0  0  0  0  0  0999 V2000
   12.4616    8.6700   19.4180 N   0  0  0  0  0  0  0  0  0  0  0  0
   11.8329   10.8148   18.6769 N   0  0  0  0  0  0  0  0  0  0  0  0
    6.1021    2.5564   21.0678 C   0  0  0  0  0  0  0  0  0  0  0  0
   10.9097   11.8051   18.4804 C   0  0  0  0  0  0  0  0  0  0  0  0
   11.2280   12.9135   17.5669 C   0  0  0  0  0  0  0  0  0  0  0  0
   12.3782    5.4231   20.7777 C   0  0  0  0  0  0  0  0  0  0  0  0
    7.7365    4.6508   21.6987 C   0  0  0  0  0  0  0  0  0  0  0  0
   13.0186   11.0102   18.0020 C   0  0  0  0  0  0  0  0  0  0  0  0
    8.6628    5.7088   21.8871 N   0  0  0  0  0  0  0  0  0  0  0  0
    5.6516    3.5258   21.9140 C   0  0  0  0  0  0  0  0  0  0  0  0
   11.5863    9.6815   19.4539 C   0  0  0  0  0  0  0  0  0  0  0  0
   12.9648    4.1543   20.9205 C   0  0  0  0  0  0  0  0  0  0  0  0
    8.2089    3.6265   20.8929 C   0  0  0  0  0  0  0  0  0  0  0  0
    7.3827    2.5724   20.5432 C   0  0  0  0  0  0  0  0  0  0  0  0
   11.1529    7.2750   20.8025 C   0  0  0  0  0  0  0  0  0  0  0  0
   10.2573    8.3215   20.9827 C   0  0  0  0  0  0  0  0  0  0  0  0
   11.1606    5.9378   21.2366 N   0  0  0  0  0  0  0  0  0  0  0  0
    9.8932   11.6736   19.0677 O   0  0  0  0  0  0  0  0  0  0  0  0
    6.4470    4.5850   22.2321 C   0  0  0  0  0  0  0  0  0  0  0  0
    8.4619    6.9895   22.2968 C   0  0  0  0  0  0  0  0  0  0  0  0
   12.2747    7.5102   20.0420 C   0  0  0  0  0  0  0  0  0  0  0  0
   14.2544    6.2142   19.4191 C   0  0  0  0  0  0  0  0  0  0  0  0
   13.0695    6.3705   20.0375 N   0  0  0  0  0  0  0  0  0  0  0  0
    9.1913    8.0876   21.8361 N   0  0  0  0  0  0  0  0  0  0  0  0
   10.4739    9.4813   20.2889 C   0  0  0  0  0  0  0  0  0  0  0  0
    7.5551    7.1270   23.1200 O   0  0  0  0  0  0  0  0  0  0  0  0
  1 11  4  0
  1 21  4  0
  2  4  1  0
  2  8  1  0
  2 11  1  0
  3 10  4  0
  3 14  4  0
  4  5  1  0
  4 18  2  0
  6 12  1  0
  6 17  4  0
  6 23  4  0
  7  9  1  0
  7 13  4  0
  7 19  4  0
  9 20  1  0
 10 19  4  0
 11 25  4  0
 13 14  4  0
 15 16  4  0
 15 17  4  0
 15 21  4  0
 16 24  1  0
 16 25  4  0
 20 24  1  0
 20 26  2  0
 21 23  4  0
 22 23  1  0
M  END
$$$$

 Created by Python create_sdf_string function

 26 28  0  0  0  0  0  0  0  0999 V2000
   12.4616    8.6700   19.4180 N   0  0  0  0  0  0  0  0  0  0  0  0
   11.8329   10.8148   18.6769 N   0  0  0  0  0  0  0  0  0  0  0  0
    6.1021    2.5564   21.0678 C   0  0  0  0  0  0  0  0  0  0  0  0
   10.9097   11.8051   18.4804 C   0  0  0  0  0  0  0  0  0  0  0  0
   11.2280   12.9135   17.5669 C   0  0  0  0  0  0  0  0  0  0  0  0
   12.3782    5.4231   20.7777 C   0  0  0  0  0  0  0  0  0  0  0  0
    7.7365    4.6508   21.6987 C   0  0  0  0  0  0  0  0  0  0  0  0
   13.0186   11.0102   18.0020 C   0  0  0  0  0  0  0  0  0  0  0  0
    8.6628    5.7088   21.8871 N   0  0  0  0  0  0  0  0  0  0  0  0
    5.6516    3.5258   21.9140 C   0  0  0  0  0  0  0  0  0  0  0  0
   11.5863    9.6815   19.4539 C   0  0  0  0  0  0  0  0  0  0  0  0
   12.9648    4.1543   20.9205 C   0  0  0  0  0  0  0  0  0  0  0  0
    8.2089    3.6265   20.8929 C   0  0  0  0  0  0  0  0  0  0  0  0
    7.3827    2.5724   20.5432 C   0  0  0  0  0  0  0  0  0  0  0  0
   11.1529    7.2750   20.8025 C   0  0  0  0  0  0  0  0  0  0  0  0
   10.2573    8.3215   20.9827 C   0  0  0  0  0  0  0  0  0  0  0  0
   11.1606    5.9378   21.2366 N   0  0  0  0  0  0  0  0  0  0  0  0
    9.8932   11.6736   19.0677 O   0  0  0  0  0  0  0  0  0  0  0  0
    6.4470    4.5850   22.2321 C   0  0  0  0  0  0  0  0  0  0  0  0
    8.4619    6.9895   22.2968 C   0  0  0  0  0  0  0  0  0  0  0  0
   12.2747    7.5102   20.0420 C   0  0  0  0  0  0  0  0  0  0  0  0
   14.2544    6.2142   19.4191 C   0  0  0  0  0  0  0  0  0  0  0  0
   13.0695    6.3705   20.0375 N   0  0  0  0  0  0  0  0  0  0  0  0
    9.1913    8.0876   21.8361 N   0  0  0  0  0  0  0  0  0  0  0  0
   10.4739    9.4813   20.2889 C   0  0  0  0  0  0  0  0  0  0  0  0
    7.5551    7.1270   23.1200 O   0  0  0  0  0  0  0  0  0  0  0  0
  1 11  4  0
  1 21  4  0
  2  4  1  0
  2  8  1  0
  2 11  1  0
  3 10  4  0
  3 14  4  0
  4  5  1  0
  4 18  2  0
  6 12  1  0
  6 17  4  0
  6 23  4  0
  7  9  1  0
  7 13  4  0
  7 19  4  0
  9 20  1  0
 10 19  4  0
 11 25  4  0
 13 14  4  0
 15 16  4  0
 15 17  4  0
 15 21  4  0
 16 24  1  0
 16 25  4  0
 20 24  1  0
 20 26  2  0
 21 23  4  0
 22 23  1  0
M  END
$$$$

 Created by Python create_sdf_string function

 26 28  0  0  0  0  0  0  0  0999 V2000
   12.4616    8.6700   19.4180 N   0  0  0  0  0  0  0  0  0  0  0  0
   11.8329   10.8148   18.6769 N   0  0  0  0  0  0  0  0  0  0  0  0
    6.1021    2.5564   21.0678 C   0  0  0  0  0  0  0  0  0  0  0  0
   10.9097   11.8051   18.4804 C   0  0  0  0  0  0  0  0  0  0  0  0
   11.2280   12.9135   17.5669 C   0  0  0  0  0  0  0  0  0  0  0  0
   12.3782    5.4231   20.7777 C   0  0  0  0  0  0  0  0  0  0  0  0
    7.7365    4.6508   21.6987 C   0  0  0  0  0  0  0  0  0  0  0  0
   13.0186   11.0102   18.0020 C   0  0  0  0  0  0  0  0  0  0  0  0
    8.6628    5.7088   21.8871 N   0  0  0  0  0  0  0  0  0  0  0  0
    5.6516    3.5258   21.9140 C   0  0  0  0  0  0  0  0  0  0  0  0
   11.5863    9.6815   19.4539 C   0  0  0  0  0  0  0  0  0  0  0  0
   12.9648    4.1543   20.9205 C   0  0  0  0  0  0  0  0  0  0  0  0
    8.2089    3.6265   20.8929 C   0  0  0  0  0  0  0  0  0  0  0  0
    7.3827    2.5724   20.5432 C   0  0  0  0  0  0  0  0  0  0  0  0
   11.1529    7.2750   20.8025 C   0  0  0  0  0  0  0  0  0  0  0  0
   10.2573    8.3215   20.9827 C   0  0  0  0  0  0  0  0  0  0  0  0
   11.1606    5.9378   21.2366 N   0  0  0  0  0  0  0  0  0  0  0  0
    9.8932   11.6736   19.0677 O   0  0  0  0  0  0  0  0  0  0  0  0
    6.4470    4.5850   22.2321 C   0  0  0  0  0  0  0  0  0  0  0  0
    8.4619    6.9895   22.2968 C   0  0  0  0  0  0  0  0  0  0  0  0
   12.2747    7.5102   20.0420 C   0  0  0  0  0  0  0  0  0  0  0  0
   14.2544    6.2142   19.4191 C   0  0  0  0  0  0  0  0  0  0  0  0
   13.0695    6.3705   20.0375 N   0  0  0  0  0  0  0  0  0  0  0  0
    9.1913    8.0876   21.8361 N   0  0  0  0  0  0  0  0  0  0  0  0
   10.4739    9.4813   20.2889 C   0  0  0  0  0  0  0  0  0  0  0  0
    7.5551    7.1270   23.1200 O   0  0  0  0  0  0  0  0  0  0  0  0
  1 11  4  0
  1 21  4  0
  2  4  1  0
  2  8  1  0
  2 11  1  0
  3 10  4  0
  3 14  4  0
  4  5  1  0
  4 18  2  0
  6 12  1  0
  6 17  4  0
  6 23  4  0
  7  9  1  0
  7 13  4  0
  7 19  4  0
  9 20  1  0
 10 19  4  0
 11 25  4  0
 13 14  4  0
 15 16  4  0
 15 17  4  0
 15 21  4  0
 16 24  1  0
 16 25  4  0
 20 24  1  0
 20 26  2  0
 21 23  4  0
 22 23  1  0
M  END
$$$$

 Created by Python create_sdf_string function

 26 28  0  0  0  0  0  0  0  0999 V2000
   12.4616    8.6700   19.4180 N   0  0  0  0  0  0  0  0  0  0  0  0
   11.8329   10.8148   18.6769 N   0  0  0  0  0  0  0  0  0  0  0  0
    6.1021    2.5564   21.0678 C   0  0  0  0  0  0  0  0  0  0  0  0
   10.9097   11.8051   18.4804 C   0  0  0  0  0  0  0  0  0  0  0  0
   11.2280   12.9135   17.5669 C   0  0  0  0  0  0  0  0  0  0  0  0
   12.3782    5.4231   20.7777 C   0  0  0  0  0  0  0  0  0  0  0  0
    7.7365    4.6508   21.6987 C   0  0  0  0  0  0  0  0  0  0  0  0
   13.0186   11.0102   18.0020 C   0  0  0  0  0  0  0  0  0  0  0  0
    8.6628    5.7088   21.8871 N   0  0  0  0  0  0  0  0  0  0  0  0
    5.6516    3.5258   21.9140 C   0  0  0  0  0  0  0  0  0  0  0  0
   11.5863    9.6815   19.4539 C   0  0  0  0  0  0  0  0  0  0  0  0
   12.9648    4.1543   20.9205 C   0  0  0  0  0  0  0  0  0  0  0  0
    8.2089    3.6265   20.8929 C   0  0  0  0  0  0  0  0  0  0  0  0
    7.3827    2.5724   20.5432 C   0  0  0  0  0  0  0  0  0  0  0  0
   11.1529    7.2750   20.8025 C   0  0  0  0  0  0  0  0  0  0  0  0
   10.2573    8.3215   20.9827 C   0  0  0  0  0  0  0  0  0  0  0  0
   11.1606    5.9378   21.2366 N   0  0  0  0  0  0  0  0  0  0  0  0
    9.8932   11.6736   19.0677 O   0  0  0  0  0  0  0  0  0  0  0  0
    6.4470    4.5850   22.2321 C   0  0  0  0  0  0  0  0  0  0  0  0
    8.4619    6.9895   22.2968 C   0  0  0  0  0  0  0  0  0  0  0  0
   12.2747    7.5102   20.0420 C   0  0  0  0  0  0  0  0  0  0  0  0
   14.2544    6.2142   19.4191 C   0  0  0  0  0  0  0  0  0  0  0  0
   13.0695    6.3705   20.0375 N   0  0  0  0  0  0  0  0  0  0  0  0
    9.1913    8.0876   21.8361 N   0  0  0  0  0  0  0  0  0  0  0  0
   10.4739    9.4813   20.2889 C   0  0  0  0  0  0  0  0  0  0  0  0
    7.5551    7.1270   23.1200 O   0  0  0  0  0  0  0  0  0  0  0  0
  1 11  4  0
  1 21  4  0
  2  4  1  0
  2  8  1  0
  2 11  1  0
  3 10  4  0
  3 14  4  0
  4  5  1  0
  4 18  2  0
  6 12  1  0
  6 17  4  0
  6 23  4  0
  7  9  1  0
  7 13  4  0
  7 19  4  0
  9 20  1  0
 10 19  4  0
 11 25  4  0
 13 14  4  0
 15 16  4  0
 15 17  4  0
 15 21  4  0
 16 24  1  0
 16 25  4  0
 20 24  1  0
 20 26  2  0
 21 23  4  0
 22 23  1  0
M  END
$$$$

 Created by Python create_sdf_string function

 26 28  0  0  0  0  0  0  0  0999 V2000
   12.4616    8.6700   19.4180 N   0  0  0  0  0  0  0  0  0  0  0  0
   11.8329   10.8148   18.6769 N   0  0  0  0  0  0  0  0  0  0  0  0
    6.1021    2.5564   21.0678 C   0  0  0  0  0  0  0  0  0  0  0  0
   10.9097   11.8051   18.4804 C   0  0  0  0  0  0  0  0  0  0  0  0
   11.2280   12.9135   17.5669 C   0  0  0  0  0  0  0  0  0  0  0  0
   12.3782    5.4231   20.7777 C   0  0  0  0  0  0  0  0  0  0  0  0
    7.7365    4.6508   21.6987 C   0  0  0  0  0  0  0  0  0  0  0  0
   13.0186   11.0102   18.0020 C   0  0  0  0  0  0  0  0  0  0  0  0
    8.6628    5.7088   21.8871 N   0  0  0  0  0  0  0  0  0  0  0  0
    5.6516    3.5258   21.9140 C   0  0  0  0  0  0  0  0  0  0  0  0
   11.5863    9.6815   19.4539 C   0  0  0  0  0  0  0  0  0  0  0  0
   12.9648    4.1543   20.9205 C   0  0  0  0  0  0  0  0  0  0  0  0
    8.2089    3.6265   20.8929 C   0  0  0  0  0  0  0  0  0  0  0  0
    7.3827    2.5724   20.5432 C   0  0  0  0  0  0  0  0  0  0  0  0
   11.1529    7.2750   20.8025 C   0  0  0  0  0  0  0  0  0  0  0  0
   10.2573    8.3215   20.9827 C   0  0  0  0  0  0  0  0  0  0  0  0
   11.1606    5.9378   21.2366 N   0  0  0  0  0  0  0  0  0  0  0  0
    9.8932   11.6736   19.0677 O   0  0  0  0  0  0  0  0  0  0  0  0
    6.4470    4.5850   22.2321 C   0  0  0  0  0  0  0  0  0  0  0  0
    8.4619    6.9895   22.2968 C   0  0  0  0  0  0  0  0  0  0  0  0
   12.2747    7.5102   20.0420 C   0  0  0  0  0  0  0  0  0  0  0  0
   14.2544    6.2142   19.4191 C   0  0  0  0  0  0  0  0  0  0  0  0
   13.0695    6.3705   20.0375 N   0  0  0  0  0  0  0  0  0  0  0  0
    9.1913    8.0876   21.8361 N   0  0  0  0  0  0  0  0  0  0  0  0
   10.4739    9.4813   20.2889 C   0  0  0  0  0  0  0  0  0  0  0  0
    7.5551    7.1270   23.1200 O   0  0  0  0  0  0  0  0  0  0  0  0
  1 11  4  0
  1 21  4  0
  2  4  1  0
  2  8  1  0
  2 11  1  0
  3 10  4  0
  3 14  4  0
  4  5  1  0
  4 18  2  0
  6 12  1  0
  6 17  4  0
  6 23  4  0
  7  9  1  0
  7 13  4  0
  7 19  4  0
  9 20  1  0
 10 19  4  0
 11 25  4  0
 13 14  4  0
 15 16  4  0
 15 17  4  0
 15 21  4  0
 16 24  1  0
 16 25  4  0
 20 24  1  0
 20 26  2  0
 21 23  4  0
 22 23  1  0
M  END
$$$$

 Created by Python create_sdf_string function

 26 28  0  0  0  0  0  0  0  0999 V2000
   12.4616    8.6700   19.4180 N   0  0  0  0  0  0  0  0  0  0  0  0
   11.8329   10.8148   18.6769 N   0  0  0  0  0  0  0  0  0  0  0  0
    6.1021    2.5564   21.0678 C   0  0  0  0  0  0  0  0  0  0  0  0
   10.9097   11.8051   18.4804 C   0  0  0  0  0  0  0  0  0  0  0  0
   11.2280   12.9135   17.5669 C   0  0  0  0  0  0  0  0  0  0  0  0
   12.3782    5.4231   20.7777 C   0  0  0  0  0  0  0  0  0  0  0  0
    7.7365    4.6508   21.6987 C   0  0  0  0  0  0  0  0  0  0  0  0
   13.0186   11.0102   18.0020 C   0  0  0  0  0  0  0  0  0  0  0  0
    8.6628    5.7088   21.8871 N   0  0  0  0  0  0  0  0  0  0  0  0
    5.6516    3.5258   21.9140 C   0  0  0  0  0  0  0  0  0  0  0  0
   11.5863    9.6815   19.4539 C   0  0  0  0  0  0  0  0  0  0  0  0
   12.9648    4.1543   20.9205 C   0  0  0  0  0  0  0  0  0  0  0  0
    8.2089    3.6265   20.8929 C   0  0  0  0  0  0  0  0  0  0  0  0
    7.3827    2.5724   20.5432 C   0  0  0  0  0  0  0  0  0  0  0  0
   11.1529    7.2750   20.8025 C   0  0  0  0  0  0  0  0  0  0  0  0
   10.2573    8.3215   20.9827 C   0  0  0  0  0  0  0  0  0  0  0  0
   11.1606    5.9378   21.2366 N   0  0  0  0  0  0  0  0  0  0  0  0
    9.8932   11.6736   19.0677 O   0  0  0  0  0  0  0  0  0  0  0  0
    6.4470    4.5850   22.2321 C   0  0  0  0  0  0  0  0  0  0  0  0
    8.4619    6.9895   22.2968 C   0  0  0  0  0  0  0  0  0  0  0  0
   12.2747    7.5102   20.0420 C   0  0  0  0  0  0  0  0  0  0  0  0
   14.2544    6.2142   19.4191 C   0  0  0  0  0  0  0  0  0  0  0  0
   13.0695    6.3705   20.0375 N   0  0  0  0  0  0  0  0  0  0  0  0
    9.1913    8.0876   21.8361 N   0  0  0  0  0  0  0  0  0  0  0  0
   10.4739    9.4813   20.2889 C   0  0  0  0  0  0  0  0  0  0  0  0
    7.5551    7.1270   23.1200 O   0  0  0  0  0  0  0  0  0  0  0  0
  1 11  4  0
  1 21  4  0
  2  4  1  0
  2  8  1  0
  2 11  1  0
  3 10  4  0
  3 14  4  0
  4  5  1  0
  4 18  2  0
  6 12  1  0
  6 17  4  0
  6 23  4  0
  7  9  1  0
  7 13  4  0
  7 19  4  0
  9 20  1  0
 10 19  4  0
 11 25  4  0
 13 14  4  0
 15 16  4  0
 15 17  4  0
 15 21  4  0
 16 24  1  0
 16 25  4  0
 20 24  1  0
 20 26  2  0
 21 23  4  0
 22 23  1  0
M  END
$$$$

 Created by Python create_sdf_string function

 26 28  0  0  0  0  0  0  0  0999 V2000
   12.4616    8.6700   19.4180 N   0  0  0  0  0  0  0  0  0  0  0  0
   11.8329   10.8148   18.6769 N   0  0  0  0  0  0  0  0  0  0  0  0
    6.1021    2.5564   21.0678 C   0  0  0  0  0  0  0  0  0  0  0  0
   10.9097   11.8051   18.4804 C   0  0  0  0  0  0  0  0  0  0  0  0
   11.2280   12.9135   17.5669 C   0  0  0  0  0  0  0  0  0  0  0  0
   12.3782    5.4231   20.7777 C   0  0  0  0  0  0  0  0  0  0  0  0
    7.7365    4.6508   21.6987 C   0  0  0  0  0  0  0  0  0  0  0  0
   13.0186   11.0102   18.0020 C   0  0  0  0  0  0  0  0  0  0  0  0
    8.6628    5.7088   21.8871 N   0  0  0  0  0  0  0  0  0  0  0  0
    5.6516    3.5258   21.9140 C   0  0  0  0  0  0  0  0  0  0  0  0
   11.5863    9.6815   19.4539 C   0  0  0  0  0  0  0  0  0  0  0  0
   12.9648    4.1543   20.9205 C   0  0  0  0  0  0  0  0  0  0  0  0
    8.2089    3.6265   20.8929 C   0  0  0  0  0  0  0  0  0  0  0  0
    7.3827    2.5724   20.5432 C   0  0  0  0  0  0  0  0  0  0  0  0
   11.1529    7.2750   20.8025 C   0  0  0  0  0  0  0  0  0  0  0  0
   10.2573    8.3215   20.9827 C   0  0  0  0  0  0  0  0  0  0  0  0
   11.1606    5.9378   21.2366 N   0  0  0  0  0  0  0  0  0  0  0  0
    9.8932   11.6736   19.0677 O   0  0  0  0  0  0  0  0  0  0  0  0
    6.4470    4.5850   22.2321 C   0  0  0  0  0  0  0  0  0  0  0  0
    8.4619    6.9895   22.2968 C   0  0  0  0  0  0  0  0  0  0  0  0
   12.2747    7.5102   20.0420 C   0  0  0  0  0  0  0  0  0  0  0  0
   14.2544    6.2142   19.4191 C   0  0  0  0  0  0  0  0  0  0  0  0
   13.0695    6.3705   20.0375 N   0  0  0  0  0  0  0  0  0  0  0  0
    9.1913    8.0876   21.8361 N   0  0  0  0  0  0  0  0  0  0  0  0
   10.4739    9.4813   20.2889 C   0  0  0  0  0  0  0  0  0  0  0  0
    7.5551    7.1270   23.1200 O   0  0  0  0  0  0  0  0  0  0  0  0
  1 11  4  0
  1 21  4  0
  2  4  1  0
  2  8  1  0
  2 11  1  0
  3 10  4  0
  3 14  4  0
  4  5  1  0
  4 18  2  0
  6 12  1  0
  6 17  4  0
  6 23  4  0
  7  9  1  0
  7 13  4  0
  7 19  4  0
  9 20  1  0
 10 19  4  0
 11 25  4  0
 13 14  4  0
 15 16  4  0
 15 17  4  0
 15 21  4  0
 16 24  1  0
 16 25  4  0
 20 24  1  0
 20 26  2  0
 21 23  4  0
 22 23  1  0
M  END
$$$$

 Created by Python create_sdf_string function

 26 28  0  0  0  0  0  0  0  0999 V2000
   12.4616    8.6700   19.4180 N   0  0  0  0  0  0  0  0  0  0  0  0
   11.8329   10.8148   18.6769 N   0  0  0  0  0  0  0  0  0  0  0  0
    6.1021    2.5564   21.0678 C   0  0  0  0  0  0  0  0  0  0  0  0
   10.9097   11.8051   18.4804 C   0  0  0  0  0  0  0  0  0  0  0  0
   11.2280   12.9135   17.5669 C   0  0  0  0  0  0  0  0  0  0  0  0
   12.3782    5.4231   20.7777 C   0  0  0  0  0  0  0  0  0  0  0  0
    7.7365    4.6508   21.6987 C   0  0  0  0  0  0  0  0  0  0  0  0
   13.0186   11.0102   18.0020 C   0  0  0  0  0  0  0  0  0  0  0  0
    8.6628    5.7088   21.8871 N   0  0  0  0  0  0  0  0  0  0  0  0
    5.6516    3.5258   21.9140 C   0  0  0  0  0  0  0  0  0  0  0  0
   11.5863    9.6815   19.4539 C   0  0  0  0  0  0  0  0  0  0  0  0
   12.9648    4.1543   20.9205 C   0  0  0  0  0  0  0  0  0  0  0  0
    8.2089    3.6265   20.8929 C   0  0  0  0  0  0  0  0  0  0  0  0
    7.3827    2.5724   20.5432 C   0  0  0  0  0  0  0  0  0  0  0  0
   11.1529    7.2750   20.8025 C   0  0  0  0  0  0  0  0  0  0  0  0
   10.2573    8.3215   20.9827 C   0  0  0  0  0  0  0  0  0  0  0  0
   11.1606    5.9378   21.2366 N   0  0  0  0  0  0  0  0  0  0  0  0
    9.8932   11.6736   19.0677 O   0  0  0  0  0  0  0  0  0  0  0  0
    6.4470    4.5850   22.2321 C   0  0  0  0  0  0  0  0  0  0  0  0
    8.4619    6.9895   22.2968 C   0  0  0  0  0  0  0  0  0  0  0  0
   12.2747    7.5102   20.0420 C   0  0  0  0  0  0  0  0  0  0  0  0
   14.2544    6.2142   19.4191 C   0  0  0  0  0  0  0  0  0  0  0  0
   13.0695    6.3705   20.0375 N   0  0  0  0  0  0  0  0  0  0  0  0
    9.1913    8.0876   21.8361 N   0  0  0  0  0  0  0  0  0  0  0  0
   10.4739    9.4813   20.2889 C   0  0  0  0  0  0  0  0  0  0  0  0
    7.5551    7.1270   23.1200 O   0  0  0  0  0  0  0  0  0  0  0  0
  1 11  4  0
  1 21  4  0
  2  4  1  0
  2  8  1  0
  2 11  1  0
  3 10  4  0
  3 14  4  0
  4  5  1  0
  4 18  2  0
  6 12  1  0
  6 17  4  0
  6 23  4  0
  7  9  1  0
  7 13  4  0
  7 19  4  0
  9 20  1  0
 10 19  4  0
 11 25  4  0
 13 14  4  0
 15 16  4  0
 15 17  4  0
 15 21  4  0
 16 24  1  0
 16 25  4  0
 20 24  1  0
 20 26  2  0
 21 23  4  0
 22 23  1  0
M  END
$$$$

 Created by Python create_sdf_string function

 26 28  0  0  0  0  0  0  0  0999 V2000
   12.4616    8.6700   19.4180 N   0  0  0  0  0  0  0  0  0  0  0  0
   11.8329   10.8148   18.6769 N   0  0  0  0  0  0  0  0  0  0  0  0
    6.1021    2.5564   21.0678 C   0  0  0  0  0  0  0  0  0  0  0  0
   10.9097   11.8051   18.4804 C   0  0  0  0  0  0  0  0  0  0  0  0
   11.2280   12.9135   17.5669 C   0  0  0  0  0  0  0  0  0  0  0  0
   12.3782    5.4231   20.7777 C   0  0  0  0  0  0  0  0  0  0  0  0
    7.7365    4.6508   21.6987 C   0  0  0  0  0  0  0  0  0  0  0  0
   13.0186   11.0102   18.0020 C   0  0  0  0  0  0  0  0  0  0  0  0
    8.6628    5.7088   21.8871 N   0  0  0  0  0  0  0  0  0  0  0  0
    5.6516    3.5258   21.9140 C   0  0  0  0  0  0  0  0  0  0  0  0
   11.5863    9.6815   19.4539 C   0  0  0  0  0  0  0  0  0  0  0  0
   12.9648    4.1543   20.9205 C   0  0  0  0  0  0  0  0  0  0  0  0
    8.2089    3.6265   20.8929 C   0  0  0  0  0  0  0  0  0  0  0  0
    7.3827    2.5724   20.5432 C   0  0  0  0  0  0  0  0  0  0  0  0
   11.1529    7.2750   20.8025 C   0  0  0  0  0  0  0  0  0  0  0  0
   10.2573    8.3215   20.9827 C   0  0  0  0  0  0  0  0  0  0  0  0
   11.1606    5.9378   21.2366 N   0  0  0  0  0  0  0  0  0  0  0  0
    9.8932   11.6736   19.0677 O   0  0  0  0  0  0  0  0  0  0  0  0
    6.4470    4.5850   22.2321 C   0  0  0  0  0  0  0  0  0  0  0  0
    8.4619    6.9895   22.2968 C   0  0  0  0  0  0  0  0  0  0  0  0
   12.2747    7.5102   20.0420 C   0  0  0  0  0  0  0  0  0  0  0  0
   14.2544    6.2142   19.4191 C   0  0  0  0  0  0  0  0  0  0  0  0
   13.0695    6.3705   20.0375 N   0  0  0  0  0  0  0  0  0  0  0  0
    9.1913    8.0876   21.8361 N   0  0  0  0  0  0  0  0  0  0  0  0
   10.4739    9.4813   20.2889 C   0  0  0  0  0  0  0  0  0  0  0  0
    7.5551    7.1270   23.1200 O   0  0  0  0  0  0  0  0  0  0  0  0
  1 11  4  0
  1 21  4  0
  2  4  1  0
  2  8  1  0
  2 11  1  0
  3 10  4  0
  3 14  4  0
  4  5  1  0
  4 18  2  0
  6 12  1  0
  6 17  4  0
  6 23  4  0
  7  9  1  0
  7 13  4  0
  7 19  4  0
  9 20  1  0
 10 19  4  0
 11 25  4  0
 13 14  4  0
 15 16  4  0
 15 17  4  0
 15 21  4  0
 16 24  1  0
 16 25  4  0
 20 24  1  0
 20 26  2  0
 21 23  4  0
 22 23  1  0
M  END
$$$$

 Created by Python create_sdf_string function

 26 28  0  0  0  0  0  0  0  0999 V2000
   12.4616    8.6700   19.4180 N   0  0  0  0  0  0  0  0  0  0  0  0
   11.8329   10.8148   18.6769 N   0  0  0  0  0  0  0  0  0  0  0  0
    6.1021    2.5564   21.0678 C   0  0  0  0  0  0  0  0  0  0  0  0
   10.9097   11.8051   18.4804 C   0  0  0  0  0  0  0  0  0  0  0  0
   11.2280   12.9135   17.5669 C   0  0  0  0  0  0  0  0  0  0  0  0
   12.3782    5.4231   20.7777 C   0  0  0  0  0  0  0  0  0  0  0  0
    7.7365    4.6508   21.6987 C   0  0  0  0  0  0  0  0  0  0  0  0
   13.0186   11.0102   18.0020 C   0  0  0  0  0  0  0  0  0  0  0  0
    8.6628    5.7088   21.8871 N   0  0  0  0  0  0  0  0  0  0  0  0
    5.6516    3.5258   21.9140 C   0  0  0  0  0  0  0  0  0  0  0  0
   11.5863    9.6815   19.4539 C   0  0  0  0  0  0  0  0  0  0  0  0
   12.9648    4.1543   20.9205 C   0  0  0  0  0  0  0  0  0  0  0  0
    8.2089    3.6265   20.8929 C   0  0  0  0  0  0  0  0  0  0  0  0
    7.3827    2.5724   20.5432 C   0  0  0  0  0  0  0  0  0  0  0  0
   11.1529    7.2750   20.8025 C   0  0  0  0  0  0  0  0  0  0  0  0
   10.2573    8.3215   20.9827 C   0  0  0  0  0  0  0  0  0  0  0  0
   11.1606    5.9378   21.2366 N   0  0  0  0  0  0  0  0  0  0  0  0
    9.8932   11.6736   19.0677 O   0  0  0  0  0  0  0  0  0  0  0  0
    6.4470    4.5850   22.2321 C   0  0  0  0  0  0  0  0  0  0  0  0
    8.4619    6.9895   22.2968 C   0  0  0  0  0  0  0  0  0  0  0  0
   12.2747    7.5102   20.0420 C   0  0  0  0  0  0  0  0  0  0  0  0
   14.2544    6.2142   19.4191 C   0  0  0  0  0  0  0  0  0  0  0  0
   13.0695    6.3705   20.0375 N   0  0  0  0  0  0  0  0  0  0  0  0
    9.1913    8.0876   21.8361 N   0  0  0  0  0  0  0  0  0  0  0  0
   10.4739    9.4813   20.2889 C   0  0  0  0  0  0  0  0  0  0  0  0
    7.5551    7.1270   23.1200 O   0  0  0  0  0  0  0  0  0  0  0  0
  1 11  4  0
  1 21  4  0
  2  4  1  0
  2  8  1  0
  2 11  1  0
  3 10  4  0
  3 14  4  0
  4  5  1  0
  4 18  2  0
  6 12  1  0
  6 17  4  0
  6 23  4  0
  7  9  1  0
  7 13  4  0
  7 19  4  0
  9 20  1  0
 10 19  4  0
 11 25  4  0
 13 14  4  0
 15 16  4  0
 15 17  4  0
 15 21  4  0
 16 24  1  0
 16 25  4  0
 20 24  1  0
 20 26  2  0
 21 23  4  0
 22 23  1  0
M  END
$$$$

 Created by Python create_sdf_string function

 26 28  0  0  0  0  0  0  0  0999 V2000
   12.4616    8.6700   19.4180 N   0  0  0  0  0  0  0  0  0  0  0  0
   11.8329   10.8148   18.6769 N   0  0  0  0  0  0  0  0  0  0  0  0
    6.1021    2.5564   21.0678 C   0  0  0  0  0  0  0  0  0  0  0  0
   10.9097   11.8051   18.4804 C   0  0  0  0  0  0  0  0  0  0  0  0
   11.2280   12.9135   17.5669 C   0  0  0  0  0  0  0  0  0  0  0  0
   12.3782    5.4231   20.7777 C   0  0  0  0  0  0  0  0  0  0  0  0
    7.7365    4.6508   21.6987 C   0  0  0  0  0  0  0  0  0  0  0  0
   13.0186   11.0102   18.0020 C   0  0  0  0  0  0  0  0  0  0  0  0
    8.6628    5.7088   21.8871 N   0  0  0  0  0  0  0  0  0  0  0  0
    5.6516    3.5258   21.9140 C   0  0  0  0  0  0  0  0  0  0  0  0
   11.5863    9.6815   19.4539 C   0  0  0  0  0  0  0  0  0  0  0  0
   12.9648    4.1543   20.9205 C   0  0  0  0  0  0  0  0  0  0  0  0
    8.2089    3.6265   20.8929 C   0  0  0  0  0  0  0  0  0  0  0  0
    7.3827    2.5724   20.5432 C   0  0  0  0  0  0  0  0  0  0  0  0
   11.1529    7.2750   20.8025 C   0  0  0  0  0  0  0  0  0  0  0  0
   10.2573    8.3215   20.9827 C   0  0  0  0  0  0  0  0  0  0  0  0
   11.1606    5.9378   21.2366 N   0  0  0  0  0  0  0  0  0  0  0  0
    9.8932   11.6736   19.0677 O   0  0  0  0  0  0  0  0  0  0  0  0
    6.4470    4.5850   22.2321 C   0  0  0  0  0  0  0  0  0  0  0  0
    8.4619    6.9895   22.2968 C   0  0  0  0  0  0  0  0  0  0  0  0
   12.2747    7.5102   20.0420 C   0  0  0  0  0  0  0  0  0  0  0  0
   14.2544    6.2142   19.4191 C   0  0  0  0  0  0  0  0  0  0  0  0
   13.0695    6.3705   20.0375 N   0  0  0  0  0  0  0  0  0  0  0  0
    9.1913    8.0876   21.8361 N   0  0  0  0  0  0  0  0  0  0  0  0
   10.4739    9.4813   20.2889 C   0  0  0  0  0  0  0  0  0  0  0  0
    7.5551    7.1270   23.1200 O   0  0  0  0  0  0  0  0  0  0  0  0
  1 11  4  0
  1 21  4  0
  2  4  1  0
  2  8  1  0
  2 11  1  0
  3 10  4  0
  3 14  4  0
  4  5  1  0
  4 18  2  0
  6 12  1  0
  6 17  4  0
  6 23  4  0
  7  9  1  0
  7 13  4  0
  7 19  4  0
  9 20  1  0
 10 19  4  0
 11 25  4  0
 13 14  4  0
 15 16  4  0
 15 17  4  0
 15 21  4  0
 16 24  1  0
 16 25  4  0
 20 24  1  0
 20 26  2  0
 21 23  4  0
 22 23  1  0
M  END
$$$$

 Created by Python create_sdf_string function

 26 28  0  0  0  0  0  0  0  0999 V2000
   12.4616    8.6700   19.4180 N   0  0  0  0  0  0  0  0  0  0  0  0
   11.8329   10.8148   18.6769 N   0  0  0  0  0  0  0  0  0  0  0  0
    6.1021    2.5564   21.0678 C   0  0  0  0  0  0  0  0  0  0  0  0
   10.9097   11.8051   18.4804 C   0  0  0  0  0  0  0  0  0  0  0  0
   11.2280   12.9135   17.5669 C   0  0  0  0  0  0  0  0  0  0  0  0
   12.3782    5.4231   20.7777 C   0  0  0  0  0  0  0  0  0  0  0  0
    7.7365    4.6508   21.6987 C   0  0  0  0  0  0  0  0  0  0  0  0
   13.0186   11.0102   18.0020 C   0  0  0  0  0  0  0  0  0  0  0  0
    8.6628    5.7088   21.8871 N   0  0  0  0  0  0  0  0  0  0  0  0
    5.6516    3.5258   21.9140 C   0  0  0  0  0  0  0  0  0  0  0  0
   11.5863    9.6815   19.4539 C   0  0  0  0  0  0  0  0  0  0  0  0
   12.9648    4.1543   20.9205 C   0  0  0  0  0  0  0  0  0  0  0  0
    8.2089    3.6265   20.8929 C   0  0  0  0  0  0  0  0  0  0  0  0
    7.3827    2.5724   20.5432 C   0  0  0  0  0  0  0  0  0  0  0  0
   11.1529    7.2750   20.8025 C   0  0  0  0  0  0  0  0  0  0  0  0
   10.2573    8.3215   20.9827 C   0  0  0  0  0  0  0  0  0  0  0  0
   11.1606    5.9378   21.2366 N   0  0  0  0  0  0  0  0  0  0  0  0
    9.8932   11.6736   19.0677 O   0  0  0  0  0  0  0  0  0  0  0  0
    6.4470    4.5850   22.2321 C   0  0  0  0  0  0  0  0  0  0  0  0
    8.4619    6.9895   22.2968 C   0  0  0  0  0  0  0  0  0  0  0  0
   12.2747    7.5102   20.0420 C   0  0  0  0  0  0  0  0  0  0  0  0
   14.2544    6.2142   19.4191 C   0  0  0  0  0  0  0  0  0  0  0  0
   13.0695    6.3705   20.0375 N   0  0  0  0  0  0  0  0  0  0  0  0
    9.1913    8.0876   21.8361 N   0  0  0  0  0  0  0  0  0  0  0  0
   10.4739    9.4813   20.2889 C   0  0  0  0  0  0  0  0  0  0  0  0
    7.5551    7.1270   23.1200 O   0  0  0  0  0  0  0  0  0  0  0  0
  1 11  4  0
  1 21  4  0
  2  4  1  0
  2  8  1  0
  2 11  1  0
  3 10  4  0
  3 14  4  0
  4  5  1  0
  4 18  2  0
  6 12  1  0
  6 17  4  0
  6 23  4  0
  7  9  1  0
  7 13  4  0
  7 19  4  0
  9 20  1  0
 10 19  4  0
 11 25  4  0
 13 14  4  0
 15 16  4  0
 15 17  4  0
 15 21  4  0
 16 24  1  0
 16 25  4  0
 20 24  1  0
 20 26  2  0
 21 23  4  0
 22 23  1  0
M  END
$$$$

 Created by Python create_sdf_string function

 26 28  0  0  0  0  0  0  0  0999 V2000
   12.4616    8.6700   19.4180 N   0  0  0  0  0  0  0  0  0  0  0  0
   11.8329   10.8148   18.6769 N   0  0  0  0  0  0  0  0  0  0  0  0
    6.1021    2.5564   21.0678 C   0  0  0  0  0  0  0  0  0  0  0  0
   10.9097   11.8051   18.4804 C   0  0  0  0  0  0  0  0  0  0  0  0
   11.2280   12.9135   17.5669 C   0  0  0  0  0  0  0  0  0  0  0  0
   12.3782    5.4231   20.7777 C   0  0  0  0  0  0  0  0  0  0  0  0
    7.7365    4.6508   21.6987 C   0  0  0  0  0  0  0  0  0  0  0  0
   13.0186   11.0102   18.0020 C   0  0  0  0  0  0  0  0  0  0  0  0
    8.6628    5.7088   21.8871 N   0  0  0  0  0  0  0  0  0  0  0  0
    5.6516    3.5258   21.9140 C   0  0  0  0  0  0  0  0  0  0  0  0
   11.5863    9.6815   19.4539 C   0  0  0  0  0  0  0  0  0  0  0  0
   12.9648    4.1543   20.9205 C   0  0  0  0  0  0  0  0  0  0  0  0
    8.2089    3.6265   20.8929 C   0  0  0  0  0  0  0  0  0  0  0  0
    7.3827    2.5724   20.5432 C   0  0  0  0  0  0  0  0  0  0  0  0
   11.1529    7.2750   20.8025 C   0  0  0  0  0  0  0  0  0  0  0  0
   10.2573    8.3215   20.9827 C   0  0  0  0  0  0  0  0  0  0  0  0
   11.1606    5.9378   21.2366 N   0  0  0  0  0  0  0  0  0  0  0  0
    9.8932   11.6736   19.0677 O   0  0  0  0  0  0  0  0  0  0  0  0
    6.4470    4.5850   22.2321 C   0  0  0  0  0  0  0  0  0  0  0  0
    8.4619    6.9895   22.2968 C   0  0  0  0  0  0  0  0  0  0  0  0
   12.2747    7.5102   20.0420 C   0  0  0  0  0  0  0  0  0  0  0  0
   14.2544    6.2142   19.4191 C   0  0  0  0  0  0  0  0  0  0  0  0
   13.0695    6.3705   20.0375 N   0  0  0  0  0  0  0  0  0  0  0  0
    9.1913    8.0876   21.8361 N   0  0  0  0  0  0  0  0  0  0  0  0
   10.4739    9.4813   20.2889 C   0  0  0  0  0  0  0  0  0  0  0  0
    7.5551    7.1270   23.1200 O   0  0  0  0  0  0  0  0  0  0  0  0
  1 11  4  0
  1 21  4  0
  2  4  1  0
  2  8  1  0
  2 11  1  0
  3 10  4  0
  3 14  4  0
  4  5  1  0
  4 18  2  0
  6 12  1  0
  6 17  4  0
  6 23  4  0
  7  9  1  0
  7 13  4  0
  7 19  4  0
  9 20  1  0
 10 19  4  0
 11 25  4  0
 13 14  4  0
 15 16  4  0
 15 17  4  0
 15 21  4  0
 16 24  1  0
 16 25  4  0
 20 24  1  0
 20 26  2  0
 21 23  4  0
 22 23  1  0
M  END
$$$$

 Created by Python create_sdf_string function

 26 28  0  0  0  0  0  0  0  0999 V2000
   12.4616    8.6700   19.4180 N   0  0  0  0  0  0  0  0  0  0  0  0
   11.8329   10.8148   18.6769 N   0  0  0  0  0  0  0  0  0  0  0  0
    6.1021    2.5564   21.0678 C   0  0  0  0  0  0  0  0  0  0  0  0
   10.9097   11.8051   18.4804 C   0  0  0  0  0  0  0  0  0  0  0  0
   11.2280   12.9135   17.5669 C   0  0  0  0  0  0  0  0  0  0  0  0
   12.3782    5.4231   20.7777 C   0  0  0  0  0  0  0  0  0  0  0  0
    7.7365    4.6508   21.6987 C   0  0  0  0  0  0  0  0  0  0  0  0
   13.0186   11.0102   18.0020 C   0  0  0  0  0  0  0  0  0  0  0  0
    8.6628    5.7088   21.8871 N   0  0  0  0  0  0  0  0  0  0  0  0
    5.6516    3.5258   21.9140 C   0  0  0  0  0  0  0  0  0  0  0  0
   11.5863    9.6815   19.4539 C   0  0  0  0  0  0  0  0  0  0  0  0
   12.9648    4.1543   20.9205 C   0  0  0  0  0  0  0  0  0  0  0  0
    8.2089    3.6265   20.8929 C   0  0  0  0  0  0  0  0  0  0  0  0
    7.3827    2.5724   20.5432 C   0  0  0  0  0  0  0  0  0  0  0  0
   11.1529    7.2750   20.8025 C   0  0  0  0  0  0  0  0  0  0  0  0
   10.2573    8.3215   20.9827 C   0  0  0  0  0  0  0  0  0  0  0  0
   11.1606    5.9378   21.2366 N   0  0  0  0  0  0  0  0  0  0  0  0
    9.8932   11.6736   19.0677 O   0  0  0  0  0  0  0  0  0  0  0  0
    6.4470    4.5850   22.2321 C   0  0  0  0  0  0  0  0  0  0  0  0
    8.4619    6.9895   22.2968 C   0  0  0  0  0  0  0  0  0  0  0  0
   12.2747    7.5102   20.0420 C   0  0  0  0  0  0  0  0  0  0  0  0
   14.2544    6.2142   19.4191 C   0  0  0  0  0  0  0  0  0  0  0  0
   13.0695    6.3705   20.0375 N   0  0  0  0  0  0  0  0  0  0  0  0
    9.1913    8.0876   21.8361 N   0  0  0  0  0  0  0  0  0  0  0  0
   10.4739    9.4813   20.2889 C   0  0  0  0  0  0  0  0  0  0  0  0
    7.5551    7.1270   23.1200 O   0  0  0  0  0  0  0  0  0  0  0  0
  1 11  4  0
  1 21  4  0
  2  4  1  0
  2  8  1  0
  2 11  1  0
  3 10  4  0
  3 14  4  0
  4  5  1  0
  4 18  2  0
  6 12  1  0
  6 17  4  0
  6 23  4  0
  7  9  1  0
  7 13  4  0
  7 19  4  0
  9 20  1  0
 10 19  4  0
 11 25  4  0
 13 14  4  0
 15 16  4  0
 15 17  4  0
 15 21  4  0
 16 24  1  0
 16 25  4  0
 20 24  1  0
 20 26  2  0
 21 23  4  0
 22 23  1  0
M  END
$$$$

 Created by Python create_sdf_string function

 26 28  0  0  0  0  0  0  0  0999 V2000
   12.4616    8.6700   19.4180 N   0  0  0  0  0  0  0  0  0  0  0  0
   11.8329   10.8148   18.6769 N   0  0  0  0  0  0  0  0  0  0  0  0
    6.1021    2.5564   21.0678 C   0  0  0  0  0  0  0  0  0  0  0  0
   10.9097   11.8051   18.4804 C   0  0  0  0  0  0  0  0  0  0  0  0
   11.2280   12.9135   17.5669 C   0  0  0  0  0  0  0  0  0  0  0  0
   12.3782    5.4231   20.7777 C   0  0  0  0  0  0  0  0  0  0  0  0
    7.7365    4.6508   21.6987 C   0  0  0  0  0  0  0  0  0  0  0  0
   13.0186   11.0102   18.0020 C   0  0  0  0  0  0  0  0  0  0  0  0
    8.6628    5.7088   21.8871 N   0  0  0  0  0  0  0  0  0  0  0  0
    5.6516    3.5258   21.9140 C   0  0  0  0  0  0  0  0  0  0  0  0
   11.5863    9.6815   19.4539 C   0  0  0  0  0  0  0  0  0  0  0  0
   12.9648    4.1543   20.9205 C   0  0  0  0  0  0  0  0  0  0  0  0
    8.2089    3.6265   20.8929 C   0  0  0  0  0  0  0  0  0  0  0  0
    7.3827    2.5724   20.5432 C   0  0  0  0  0  0  0  0  0  0  0  0
   11.1529    7.2750   20.8025 C   0  0  0  0  0  0  0  0  0  0  0  0
   10.2573    8.3215   20.9827 C   0  0  0  0  0  0  0  0  0  0  0  0
   11.1606    5.9378   21.2366 N   0  0  0  0  0  0  0  0  0  0  0  0
    9.8932   11.6736   19.0677 O   0  0  0  0  0  0  0  0  0  0  0  0
    6.4470    4.5850   22.2321 C   0  0  0  0  0  0  0  0  0  0  0  0
    8.4619    6.9895   22.2968 C   0  0  0  0  0  0  0  0  0  0  0  0
   12.2747    7.5102   20.0420 C   0  0  0  0  0  0  0  0  0  0  0  0
   14.2544    6.2142   19.4191 C   0  0  0  0  0  0  0  0  0  0  0  0
   13.0695    6.3705   20.0375 N   0  0  0  0  0  0  0  0  0  0  0  0
    9.1913    8.0876   21.8361 N   0  0  0  0  0  0  0  0  0  0  0  0
   10.4739    9.4813   20.2889 C   0  0  0  0  0  0  0  0  0  0  0  0
    7.5551    7.1270   23.1200 O   0  0  0  0  0  0  0  0  0  0  0  0
  1 11  4  0
  1 21  4  0
  2  4  1  0
  2  8  1  0
  2 11  1  0
  3 10  4  0
  3 14  4  0
  4  5  1  0
  4 18  2  0
  6 12  1  0
  6 17  4  0
  6 23  4  0
  7  9  1  0
  7 13  4  0
  7 19  4  0
  9 20  1  0
 10 19  4  0
 11 25  4  0
 13 14  4  0
 15 16  4  0
 15 17  4  0
 15 21  4  0
 16 24  1  0
 16 25  4  0
 20 24  1  0
 20 26  2  0
 21 23  4  0
 22 23  1  0
M  END
$$$$

 Created by Python create_sdf_string function

 26 28  0  0  0  0  0  0  0  0999 V2000
   12.4616    8.6700   19.4180 N   0  0  0  0  0  0  0  0  0  0  0  0
   11.8329   10.8148   18.6769 N   0  0  0  0  0  0  0  0  0  0  0  0
    6.1021    2.5564   21.0678 C   0  0  0  0  0  0  0  0  0  0  0  0
   10.9097   11.8051   18.4804 C   0  0  0  0  0  0  0  0  0  0  0  0
   11.2280   12.9135   17.5669 C   0  0  0  0  0  0  0  0  0  0  0  0
   12.3782    5.4231   20.7777 C   0  0  0  0  0  0  0  0  0  0  0  0
    7.7365    4.6508   21.6987 C   0  0  0  0  0  0  0  0  0  0  0  0
   13.0186   11.0102   18.0020 C   0  0  0  0  0  0  0  0  0  0  0  0
    8.6628    5.7088   21.8871 N   0  0  0  0  0  0  0  0  0  0  0  0
    5.6516    3.5258   21.9140 C   0  0  0  0  0  0  0  0  0  0  0  0
   11.5863    9.6815   19.4539 C   0  0  0  0  0  0  0  0  0  0  0  0
   12.9648    4.1543   20.9205 C   0  0  0  0  0  0  0  0  0  0  0  0
    8.2089    3.6265   20.8929 C   0  0  0  0  0  0  0  0  0  0  0  0
    7.3827    2.5724   20.5432 C   0  0  0  0  0  0  0  0  0  0  0  0
   11.1529    7.2750   20.8025 C   0  0  0  0  0  0  0  0  0  0  0  0
   10.2573    8.3215   20.9827 C   0  0  0  0  0  0  0  0  0  0  0  0
   11.1606    5.9378   21.2366 N   0  0  0  0  0  0  0  0  0  0  0  0
    9.8932   11.6736   19.0677 O   0  0  0  0  0  0  0  0  0  0  0  0
    6.4470    4.5850   22.2321 C   0  0  0  0  0  0  0  0  0  0  0  0
    8.4619    6.9895   22.2968 C   0  0  0  0  0  0  0  0  0  0  0  0
   12.2747    7.5102   20.0420 C   0  0  0  0  0  0  0  0  0  0  0  0
   14.2544    6.2142   19.4191 C   0  0  0  0  0  0  0  0  0  0  0  0
   13.0695    6.3705   20.0375 N   0  0  0  0  0  0  0  0  0  0  0  0
    9.1913    8.0876   21.8361 N   0  0  0  0  0  0  0  0  0  0  0  0
   10.4739    9.4813   20.2889 C   0  0  0  0  0  0  0  0  0  0  0  0
    7.5551    7.1270   23.1200 O   0  0  0  0  0  0  0  0  0  0  0  0
  1 11  4  0
  1 21  4  0
  2  4  1  0
  2  8  1  0
  2 11  1  0
  3 10  4  0
  3 14  4  0
  4  5  1  0
  4 18  2  0
  6 12  1  0
  6 17  4  0
  6 23  4  0
  7  9  1  0
  7 13  4  0
  7 19  4  0
  9 20  1  0
 10 19  4  0
 11 25  4  0
 13 14  4  0
 15 16  4  0
 15 17  4  0
 15 21  4  0
 16 24  1  0
 16 25  4  0
 20 24  1  0
 20 26  2  0
 21 23  4  0
 22 23  1  0
M  END
$$$$

 Created by Python create_sdf_string function

 26 28  0  0  0  0  0  0  0  0999 V2000
   12.4616    8.6700   19.4180 N   0  0  0  0  0  0  0  0  0  0  0  0
   11.8329   10.8148   18.6769 N   0  0  0  0  0  0  0  0  0  0  0  0
    6.1021    2.5564   21.0678 C   0  0  0  0  0  0  0  0  0  0  0  0
   10.9097   11.8051   18.4804 C   0  0  0  0  0  0  0  0  0  0  0  0
   11.2280   12.9135   17.5669 C   0  0  0  0  0  0  0  0  0  0  0  0
   12.3782    5.4231   20.7777 C   0  0  0  0  0  0  0  0  0  0  0  0
    7.7365    4.6508   21.6987 C   0  0  0  0  0  0  0  0  0  0  0  0
   13.0186   11.0102   18.0020 C   0  0  0  0  0  0  0  0  0  0  0  0
    8.6628    5.7088   21.8871 N   0  0  0  0  0  0  0  0  0  0  0  0
    5.6516    3.5258   21.9140 C   0  0  0  0  0  0  0  0  0  0  0  0
   11.5863    9.6815   19.4539 C   0  0  0  0  0  0  0  0  0  0  0  0
   12.9648    4.1543   20.9205 C   0  0  0  0  0  0  0  0  0  0  0  0
    8.2089    3.6265   20.8929 C   0  0  0  0  0  0  0  0  0  0  0  0
    7.3827    2.5724   20.5432 C   0  0  0  0  0  0  0  0  0  0  0  0
   11.1529    7.2750   20.8025 C   0  0  0  0  0  0  0  0  0  0  0  0
   10.2573    8.3215   20.9827 C   0  0  0  0  0  0  0  0  0  0  0  0
   11.1606    5.9378   21.2366 N   0  0  0  0  0  0  0  0  0  0  0  0
    9.8932   11.6736   19.0677 O   0  0  0  0  0  0  0  0  0  0  0  0
    6.4470    4.5850   22.2321 C   0  0  0  0  0  0  0  0  0  0  0  0
    8.4619    6.9895   22.2968 C   0  0  0  0  0  0  0  0  0  0  0  0
   12.2747    7.5102   20.0420 C   0  0  0  0  0  0  0  0  0  0  0  0
   14.2544    6.2142   19.4191 C   0  0  0  0  0  0  0  0  0  0  0  0
   13.0695    6.3705   20.0375 N   0  0  0  0  0  0  0  0  0  0  0  0
    9.1913    8.0876   21.8361 N   0  0  0  0  0  0  0  0  0  0  0  0
   10.4739    9.4813   20.2889 C   0  0  0  0  0  0  0  0  0  0  0  0
    7.5551    7.1270   23.1200 O   0  0  0  0  0  0  0  0  0  0  0  0
  1 11  4  0
  1 21  4  0
  2  4  1  0
  2  8  1  0
  2 11  1  0
  3 10  4  0
  3 14  4  0
  4  5  1  0
  4 18  2  0
  6 12  1  0
  6 17  4  0
  6 23  4  0
  7  9  1  0
  7 13  4  0
  7 19  4  0
  9 20  1  0
 10 19  4  0
 11 25  4  0
 13 14  4  0
 15 16  4  0
 15 17  4  0
 15 21  4  0
 16 24  1  0
 16 25  4  0
 20 24  1  0
 20 26  2  0
 21 23  4  0
 22 23  1  0
M  END
$$$$

 Created by Python create_sdf_string function

 26 28  0  0  0  0  0  0  0  0999 V2000
   12.4616    8.6700   19.4180 N   0  0  0  0  0  0  0  0  0  0  0  0
   11.8329   10.8148   18.6769 N   0  0  0  0  0  0  0  0  0  0  0  0
    6.1021    2.5564   21.0678 C   0  0  0  0  0  0  0  0  0  0  0  0
   10.9097   11.8051   18.4804 C   0  0  0  0  0  0  0  0  0  0  0  0
   11.2280   12.9135   17.5669 C   0  0  0  0  0  0  0  0  0  0  0  0
   12.3782    5.4231   20.7777 C   0  0  0  0  0  0  0  0  0  0  0  0
    7.7365    4.6508   21.6987 C   0  0  0  0  0  0  0  0  0  0  0  0
   13.0186   11.0102   18.0020 C   0  0  0  0  0  0  0  0  0  0  0  0
    8.6628    5.7088   21.8871 N   0  0  0  0  0  0  0  0  0  0  0  0
    5.6516    3.5258   21.9140 C   0  0  0  0  0  0  0  0  0  0  0  0
   11.5863    9.6815   19.4539 C   0  0  0  0  0  0  0  0  0  0  0  0
   12.9648    4.1543   20.9205 C   0  0  0  0  0  0  0  0  0  0  0  0
    8.2089    3.6265   20.8929 C   0  0  0  0  0  0  0  0  0  0  0  0
    7.3827    2.5724   20.5432 C   0  0  0  0  0  0  0  0  0  0  0  0
   11.1529    7.2750   20.8025 C   0  0  0  0  0  0  0  0  0  0  0  0
   10.2573    8.3215   20.9827 C   0  0  0  0  0  0  0  0  0  0  0  0
   11.1606    5.9378   21.2366 N   0  0  0  0  0  0  0  0  0  0  0  0
    9.8932   11.6736   19.0677 O   0  0  0  0  0  0  0  0  0  0  0  0
    6.4470    4.5850   22.2321 C   0  0  0  0  0  0  0  0  0  0  0  0
    8.4619    6.9895   22.2968 C   0  0  0  0  0  0  0  0  0  0  0  0
   12.2747    7.5102   20.0420 C   0  0  0  0  0  0  0  0  0  0  0  0
   14.2544    6.2142   19.4191 C   0  0  0  0  0  0  0  0  0  0  0  0
   13.0695    6.3705   20.0375 N   0  0  0  0  0  0  0  0  0  0  0  0
    9.1913    8.0876   21.8361 N   0  0  0  0  0  0  0  0  0  0  0  0
   10.4739    9.4813   20.2889 C   0  0  0  0  0  0  0  0  0  0  0  0
    7.5551    7.1270   23.1200 O   0  0  0  0  0  0  0  0  0  0  0  0
  1 11  4  0
  1 21  4  0
  2  4  1  0
  2  8  1  0
  2 11  1  0
  3 10  4  0
  3 14  4  0
  4  5  1  0
  4 18  2  0
  6 12  1  0
  6 17  4  0
  6 23  4  0
  7  9  1  0
  7 13  4  0
  7 19  4  0
  9 20  1  0
 10 19  4  0
 11 25  4  0
 13 14  4  0
 15 16  4  0
 15 17  4  0
 15 21  4  0
 16 24  1  0
 16 25  4  0
 20 24  1  0
 20 26  2  0
 21 23  4  0
 22 23  1  0
M  END
$$$$

 Created by Python create_sdf_string function

 26 28  0  0  0  0  0  0  0  0999 V2000
   12.4616    8.6700   19.4180 N   0  0  0  0  0  0  0  0  0  0  0  0
   11.8329   10.8148   18.6769 N   0  0  0  0  0  0  0  0  0  0  0  0
    6.1021    2.5564   21.0678 C   0  0  0  0  0  0  0  0  0  0  0  0
   10.9097   11.8051   18.4804 C   0  0  0  0  0  0  0  0  0  0  0  0
   11.2280   12.9135   17.5669 C   0  0  0  0  0  0  0  0  0  0  0  0
   12.3782    5.4231   20.7777 C   0  0  0  0  0  0  0  0  0  0  0  0
    7.7365    4.6508   21.6987 C   0  0  0  0  0  0  0  0  0  0  0  0
   13.0186   11.0102   18.0020 C   0  0  0  0  0  0  0  0  0  0  0  0
    8.6628    5.7088   21.8871 N   0  0  0  0  0  0  0  0  0  0  0  0
    5.6516    3.5258   21.9140 C   0  0  0  0  0  0  0  0  0  0  0  0
   11.5863    9.6815   19.4539 C   0  0  0  0  0  0  0  0  0  0  0  0
   12.9648    4.1543   20.9205 C   0  0  0  0  0  0  0  0  0  0  0  0
    8.2089    3.6265   20.8929 C   0  0  0  0  0  0  0  0  0  0  0  0
    7.3827    2.5724   20.5432 C   0  0  0  0  0  0  0  0  0  0  0  0
   11.1529    7.2750   20.8025 C   0  0  0  0  0  0  0  0  0  0  0  0
   10.2573    8.3215   20.9827 C   0  0  0  0  0  0  0  0  0  0  0  0
   11.1606    5.9378   21.2366 N   0  0  0  0  0  0  0  0  0  0  0  0
    9.8932   11.6736   19.0677 O   0  0  0  0  0  0  0  0  0  0  0  0
    6.4470    4.5850   22.2321 C   0  0  0  0  0  0  0  0  0  0  0  0
    8.4619    6.9895   22.2968 C   0  0  0  0  0  0  0  0  0  0  0  0
   12.2747    7.5102   20.0420 C   0  0  0  0  0  0  0  0  0  0  0  0
   14.2544    6.2142   19.4191 C   0  0  0  0  0  0  0  0  0  0  0  0
   13.0695    6.3705   20.0375 N   0  0  0  0  0  0  0  0  0  0  0  0
    9.1913    8.0876   21.8361 N   0  0  0  0  0  0  0  0  0  0  0  0
   10.4739    9.4813   20.2889 C   0  0  0  0  0  0  0  0  0  0  0  0
    7.5551    7.1270   23.1200 O   0  0  0  0  0  0  0  0  0  0  0  0
  1 11  4  0
  1 21  4  0
  2  4  1  0
  2  8  1  0
  2 11  1  0
  3 10  4  0
  3 14  4  0
  4  5  1  0
  4 18  2  0
  6 12  1  0
  6 17  4  0
  6 23  4  0
  7  9  1  0
  7 13  4  0
  7 19  4  0
  9 20  1  0
 10 19  4  0
 11 25  4  0
 13 14  4  0
 15 16  4  0
 15 17  4  0
 15 21  4  0
 16 24  1  0
 16 25  4  0
 20 24  1  0
 20 26  2  0
 21 23  4  0
 22 23  1  0
M  END
$$$$

 Created by Python create_sdf_string function

 26 28  0  0  0  0  0  0  0  0999 V2000
   12.4616    8.6700   19.4180 N   0  0  0  0  0  0  0  0  0  0  0  0
   11.8329   10.8148   18.6769 N   0  0  0  0  0  0  0  0  0  0  0  0
    6.1021    2.5564   21.0678 C   0  0  0  0  0  0  0  0  0  0  0  0
   10.9097   11.8051   18.4804 C   0  0  0  0  0  0  0  0  0  0  0  0
   11.2280   12.9135   17.5669 C   0  0  0  0  0  0  0  0  0  0  0  0
   12.3782    5.4231   20.7777 C   0  0  0  0  0  0  0  0  0  0  0  0
    7.7365    4.6508   21.6987 C   0  0  0  0  0  0  0  0  0  0  0  0
   13.0186   11.0102   18.0020 C   0  0  0  0  0  0  0  0  0  0  0  0
    8.6628    5.7088   21.8871 N   0  0  0  0  0  0  0  0  0  0  0  0
    5.6516    3.5258   21.9140 C   0  0  0  0  0  0  0  0  0  0  0  0
   11.5863    9.6815   19.4539 C   0  0  0  0  0  0  0  0  0  0  0  0
   12.9648    4.1543   20.9205 C   0  0  0  0  0  0  0  0  0  0  0  0
    8.2089    3.6265   20.8929 C   0  0  0  0  0  0  0  0  0  0  0  0
    7.3827    2.5724   20.5432 C   0  0  0  0  0  0  0  0  0  0  0  0
   11.1529    7.2750   20.8025 C   0  0  0  0  0  0  0  0  0  0  0  0
   10.2573    8.3215   20.9827 C   0  0  0  0  0  0  0  0  0  0  0  0
   11.1606    5.9378   21.2366 N   0  0  0  0  0  0  0  0  0  0  0  0
    9.8932   11.6736   19.0677 O   0  0  0  0  0  0  0  0  0  0  0  0
    6.4470    4.5850   22.2321 C   0  0  0  0  0  0  0  0  0  0  0  0
    8.4619    6.9895   22.2968 C   0  0  0  0  0  0  0  0  0  0  0  0
   12.2747    7.5102   20.0420 C   0  0  0  0  0  0  0  0  0  0  0  0
   14.2544    6.2142   19.4191 C   0  0  0  0  0  0  0  0  0  0  0  0
   13.0695    6.3705   20.0375 N   0  0  0  0  0  0  0  0  0  0  0  0
    9.1913    8.0876   21.8361 N   0  0  0  0  0  0  0  0  0  0  0  0
   10.4739    9.4813   20.2889 C   0  0  0  0  0  0  0  0  0  0  0  0
    7.5551    7.1270   23.1200 O   0  0  0  0  0  0  0  0  0  0  0  0
  1 11  4  0
  1 21  4  0
  2  4  1  0
  2  8  1  0
  2 11  1  0
  3 10  4  0
  3 14  4  0
  4  5  1  0
  4 18  2  0
  6 12  1  0
  6 17  4  0
  6 23  4  0
  7  9  1  0
  7 13  4  0
  7 19  4  0
  9 20  1  0
 10 19  4  0
 11 25  4  0
 13 14  4  0
 15 16  4  0
 15 17  4  0
 15 21  4  0
 16 24  1  0
 16 25  4  0
 20 24  1  0
 20 26  2  0
 21 23  4  0
 22 23  1  0
M  END
$$$$

 Created by Python create_sdf_string function

 26 28  0  0  0  0  0  0  0  0999 V2000
   12.4616    8.6700   19.4180 N   0  0  0  0  0  0  0  0  0  0  0  0
   11.8329   10.8148   18.6769 N   0  0  0  0  0  0  0  0  0  0  0  0
    6.1021    2.5564   21.0678 C   0  0  0  0  0  0  0  0  0  0  0  0
   10.9097   11.8051   18.4804 C   0  0  0  0  0  0  0  0  0  0  0  0
   11.2280   12.9135   17.5669 C   0  0  0  0  0  0  0  0  0  0  0  0
   12.3782    5.4231   20.7777 C   0  0  0  0  0  0  0  0  0  0  0  0
    7.7365    4.6508   21.6987 C   0  0  0  0  0  0  0  0  0  0  0  0
   13.0186   11.0102   18.0020 C   0  0  0  0  0  0  0  0  0  0  0  0
    8.6628    5.7088   21.8871 N   0  0  0  0  0  0  0  0  0  0  0  0
    5.6516    3.5258   21.9140 C   0  0  0  0  0  0  0  0  0  0  0  0
   11.5863    9.6815   19.4539 C   0  0  0  0  0  0  0  0  0  0  0  0
   12.9648    4.1543   20.9205 C   0  0  0  0  0  0  0  0  0  0  0  0
    8.2089    3.6265   20.8929 C   0  0  0  0  0  0  0  0  0  0  0  0
    7.3827    2.5724   20.5432 C   0  0  0  0  0  0  0  0  0  0  0  0
   11.1529    7.2750   20.8025 C   0  0  0  0  0  0  0  0  0  0  0  0
   10.2573    8.3215   20.9827 C   0  0  0  0  0  0  0  0  0  0  0  0
   11.1606    5.9378   21.2366 N   0  0  0  0  0  0  0  0  0  0  0  0
    9.8932   11.6736   19.0677 O   0  0  0  0  0  0  0  0  0  0  0  0
    6.4470    4.5850   22.2321 C   0  0  0  0  0  0  0  0  0  0  0  0
    8.4619    6.9895   22.2968 C   0  0  0  0  0  0  0  0  0  0  0  0
   12.2747    7.5102   20.0420 C   0  0  0  0  0  0  0  0  0  0  0  0
   14.2544    6.2142   19.4191 C   0  0  0  0  0  0  0  0  0  0  0  0
   13.0695    6.3705   20.0375 N   0  0  0  0  0  0  0  0  0  0  0  0
    9.1913    8.0876   21.8361 N   0  0  0  0  0  0  0  0  0  0  0  0
   10.4739    9.4813   20.2889 C   0  0  0  0  0  0  0  0  0  0  0  0
    7.5551    7.1270   23.1200 O   0  0  0  0  0  0  0  0  0  0  0  0
  1 11  4  0
  1 21  4  0
  2  4  1  0
  2  8  1  0
  2 11  1  0
  3 10  4  0
  3 14  4  0
  4  5  1  0
  4 18  2  0
  6 12  1  0
  6 17  4  0
  6 23  4  0
  7  9  1  0
  7 13  4  0
  7 19  4  0
  9 20  1  0
 10 19  4  0
 11 25  4  0
 13 14  4  0
 15 16  4  0
 15 17  4  0
 15 21  4  0
 16 24  1  0
 16 25  4  0
 20 24  1  0
 20 26  2  0
 21 23  4  0
 22 23  1  0
M  END
$$$$

 Created by Python create_sdf_string function

 26 28  0  0  0  0  0  0  0  0999 V2000
   12.4616    8.6700   19.4180 N   0  0  0  0  0  0  0  0  0  0  0  0
   11.8329   10.8148   18.6769 N   0  0  0  0  0  0  0  0  0  0  0  0
    6.1021    2.5564   21.0678 C   0  0  0  0  0  0  0  0  0  0  0  0
   10.9097   11.8051   18.4804 C   0  0  0  0  0  0  0  0  0  0  0  0
   11.2280   12.9135   17.5669 C   0  0  0  0  0  0  0  0  0  0  0  0
   12.3782    5.4231   20.7777 C   0  0  0  0  0  0  0  0  0  0  0  0
    7.7365    4.6508   21.6987 C   0  0  0  0  0  0  0  0  0  0  0  0
   13.0186   11.0102   18.0020 C   0  0  0  0  0  0  0  0  0  0  0  0
    8.6628    5.7088   21.8871 N   0  0  0  0  0  0  0  0  0  0  0  0
    5.6516    3.5258   21.9140 C   0  0  0  0  0  0  0  0  0  0  0  0
   11.5863    9.6815   19.4539 C   0  0  0  0  0  0  0  0  0  0  0  0
   12.9648    4.1543   20.9205 C   0  0  0  0  0  0  0  0  0  0  0  0
    8.2089    3.6265   20.8929 C   0  0  0  0  0  0  0  0  0  0  0  0
    7.3827    2.5724   20.5432 C   0  0  0  0  0  0  0  0  0  0  0  0
   11.1529    7.2750   20.8025 C   0  0  0  0  0  0  0  0  0  0  0  0
   10.2573    8.3215   20.9827 C   0  0  0  0  0  0  0  0  0  0  0  0
   11.1606    5.9378   21.2366 N   0  0  0  0  0  0  0  0  0  0  0  0
    9.8932   11.6736   19.0677 O   0  0  0  0  0  0  0  0  0  0  0  0
    6.4470    4.5850   22.2321 C   0  0  0  0  0  0  0  0  0  0  0  0
    8.4619    6.9895   22.2968 C   0  0  0  0  0  0  0  0  0  0  0  0
   12.2747    7.5102   20.0420 C   0  0  0  0  0  0  0  0  0  0  0  0
   14.2544    6.2142   19.4191 C   0  0  0  0  0  0  0  0  0  0  0  0
   13.0695    6.3705   20.0375 N   0  0  0  0  0  0  0  0  0  0  0  0
    9.1913    8.0876   21.8361 N   0  0  0  0  0  0  0  0  0  0  0  0
   10.4739    9.4813   20.2889 C   0  0  0  0  0  0  0  0  0  0  0  0
    7.5551    7.1270   23.1200 O   0  0  0  0  0  0  0  0  0  0  0  0
  1 11  4  0
  1 21  4  0
  2  4  1  0
  2  8  1  0
  2 11  1  0
  3 10  4  0
  3 14  4  0
  4  5  1  0
  4 18  2  0
  6 12  1  0
  6 17  4  0
  6 23  4  0
  7  9  1  0
  7 13  4  0
  7 19  4  0
  9 20  1  0
 10 19  4  0
 11 25  4  0
 13 14  4  0
 15 16  4  0
 15 17  4  0
 15 21  4  0
 16 24  1  0
 16 25  4  0
 20 24  1  0
 20 26  2  0
 21 23  4  0
 22 23  1  0
M  END
$$$$

 Created by Python create_sdf_string function

 26 28  0  0  0  0  0  0  0  0999 V2000
   12.4616    8.6700   19.4180 N   0  0  0  0  0  0  0  0  0  0  0  0
   11.8329   10.8148   18.6769 N   0  0  0  0  0  0  0  0  0  0  0  0
    6.1021    2.5564   21.0678 C   0  0  0  0  0  0  0  0  0  0  0  0
   10.9097   11.8051   18.4804 C   0  0  0  0  0  0  0  0  0  0  0  0
   11.2280   12.9135   17.5669 C   0  0  0  0  0  0  0  0  0  0  0  0
   12.3782    5.4231   20.7777 C   0  0  0  0  0  0  0  0  0  0  0  0
    7.7365    4.6508   21.6987 C   0  0  0  0  0  0  0  0  0  0  0  0
   13.0186   11.0102   18.0020 C   0  0  0  0  0  0  0  0  0  0  0  0
    8.6628    5.7088   21.8871 N   0  0  0  0  0  0  0  0  0  0  0  0
    5.6516    3.5258   21.9140 C   0  0  0  0  0  0  0  0  0  0  0  0
   11.5863    9.6815   19.4539 C   0  0  0  0  0  0  0  0  0  0  0  0
   12.9648    4.1543   20.9205 C   0  0  0  0  0  0  0  0  0  0  0  0
    8.2089    3.6265   20.8929 C   0  0  0  0  0  0  0  0  0  0  0  0
    7.3827    2.5724   20.5432 C   0  0  0  0  0  0  0  0  0  0  0  0
   11.1529    7.2750   20.8025 C   0  0  0  0  0  0  0  0  0  0  0  0
   10.2573    8.3215   20.9827 C   0  0  0  0  0  0  0  0  0  0  0  0
   11.1606    5.9378   21.2366 N   0  0  0  0  0  0  0  0  0  0  0  0
    9.8932   11.6736   19.0677 O   0  0  0  0  0  0  0  0  0  0  0  0
    6.4470    4.5850   22.2321 C   0  0  0  0  0  0  0  0  0  0  0  0
    8.4619    6.9895   22.2968 C   0  0  0  0  0  0  0  0  0  0  0  0
   12.2747    7.5102   20.0420 C   0  0  0  0  0  0  0  0  0  0  0  0
   14.2544    6.2142   19.4191 C   0  0  0  0  0  0  0  0  0  0  0  0
   13.0695    6.3705   20.0375 N   0  0  0  0  0  0  0  0  0  0  0  0
    9.1913    8.0876   21.8361 N   0  0  0  0  0  0  0  0  0  0  0  0
   10.4739    9.4813   20.2889 C   0  0  0  0  0  0  0  0  0  0  0  0
    7.5551    7.1270   23.1200 O   0  0  0  0  0  0  0  0  0  0  0  0
  1 11  4  0
  1 21  4  0
  2  4  1  0
  2  8  1  0
  2 11  1  0
  3 10  4  0
  3 14  4  0
  4  5  1  0
  4 18  2  0
  6 12  1  0
  6 17  4  0
  6 23  4  0
  7  9  1  0
  7 13  4  0
  7 19  4  0
  9 20  1  0
 10 19  4  0
 11 25  4  0
 13 14  4  0
 15 16  4  0
 15 17  4  0
 15 21  4  0
 16 24  1  0
 16 25  4  0
 20 24  1  0
 20 26  2  0
 21 23  4  0
 22 23  1  0
M  END
$$$$

 Created by Python create_sdf_string function

 26 28  0  0  0  0  0  0  0  0999 V2000
   12.4616    8.6700   19.4180 N   0  0  0  0  0  0  0  0  0  0  0  0
   11.8329   10.8148   18.6769 N   0  0  0  0  0  0  0  0  0  0  0  0
    6.1021    2.5564   21.0678 C   0  0  0  0  0  0  0  0  0  0  0  0
   10.9097   11.8051   18.4804 C   0  0  0  0  0  0  0  0  0  0  0  0
   11.2280   12.9135   17.5669 C   0  0  0  0  0  0  0  0  0  0  0  0
   12.3782    5.4231   20.7777 C   0  0  0  0  0  0  0  0  0  0  0  0
    7.7365    4.6508   21.6987 C   0  0  0  0  0  0  0  0  0  0  0  0
   13.0186   11.0102   18.0020 C   0  0  0  0  0  0  0  0  0  0  0  0
    8.6628    5.7088   21.8871 N   0  0  0  0  0  0  0  0  0  0  0  0
    5.6516    3.5258   21.9140 C   0  0  0  0  0  0  0  0  0  0  0  0
   11.5863    9.6815   19.4539 C   0  0  0  0  0  0  0  0  0  0  0  0
   12.9648    4.1543   20.9205 C   0  0  0  0  0  0  0  0  0  0  0  0
    8.2089    3.6265   20.8929 C   0  0  0  0  0  0  0  0  0  0  0  0
    7.3827    2.5724   20.5432 C   0  0  0  0  0  0  0  0  0  0  0  0
   11.1529    7.2750   20.8025 C   0  0  0  0  0  0  0  0  0  0  0  0
   10.2573    8.3215   20.9827 C   0  0  0  0  0  0  0  0  0  0  0  0
   11.1606    5.9378   21.2366 N   0  0  0  0  0  0  0  0  0  0  0  0
    9.8932   11.6736   19.0677 O   0  0  0  0  0  0  0  0  0  0  0  0
    6.4470    4.5850   22.2321 C   0  0  0  0  0  0  0  0  0  0  0  0
    8.4619    6.9895   22.2968 C   0  0  0  0  0  0  0  0  0  0  0  0
   12.2747    7.5102   20.0420 C   0  0  0  0  0  0  0  0  0  0  0  0
   14.2544    6.2142   19.4191 C   0  0  0  0  0  0  0  0  0  0  0  0
   13.0695    6.3705   20.0375 N   0  0  0  0  0  0  0  0  0  0  0  0
    9.1913    8.0876   21.8361 N   0  0  0  0  0  0  0  0  0  0  0  0
   10.4739    9.4813   20.2889 C   0  0  0  0  0  0  0  0  0  0  0  0
    7.5551    7.1270   23.1200 O   0  0  0  0  0  0  0  0  0  0  0  0
  1 11  4  0
  1 21  4  0
  2  4  1  0
  2  8  1  0
  2 11  1  0
  3 10  4  0
  3 14  4  0
  4  5  1  0
  4 18  2  0
  6 12  1  0
  6 17  4  0
  6 23  4  0
  7  9  1  0
  7 13  4  0
  7 19  4  0
  9 20  1  0
 10 19  4  0
 11 25  4  0
 13 14  4  0
 15 16  4  0
 15 17  4  0
 15 21  4  0
 16 24  1  0
 16 25  4  0
 20 24  1  0
 20 26  2  0
 21 23  4  0
 22 23  1  0
M  END
$$$$

 Created by Python create_sdf_string function

 26 28  0  0  0  0  0  0  0  0999 V2000
   12.4616    8.6700   19.4180 N   0  0  0  0  0  0  0  0  0  0  0  0
   11.8329   10.8148   18.6769 N   0  0  0  0  0  0  0  0  0  0  0  0
    6.1021    2.5564   21.0678 C   0  0  0  0  0  0  0  0  0  0  0  0
   10.9097   11.8051   18.4804 C   0  0  0  0  0  0  0  0  0  0  0  0
   11.2280   12.9135   17.5669 C   0  0  0  0  0  0  0  0  0  0  0  0
   12.3782    5.4231   20.7777 C   0  0  0  0  0  0  0  0  0  0  0  0
    7.7365    4.6508   21.6987 C   0  0  0  0  0  0  0  0  0  0  0  0
   13.0186   11.0102   18.0020 C   0  0  0  0  0  0  0  0  0  0  0  0
    8.6628    5.7088   21.8871 N   0  0  0  0  0  0  0  0  0  0  0  0
    5.6516    3.5258   21.9140 C   0  0  0  0  0  0  0  0  0  0  0  0
   11.5863    9.6815   19.4539 C   0  0  0  0  0  0  0  0  0  0  0  0
   12.9648    4.1543   20.9205 C   0  0  0  0  0  0  0  0  0  0  0  0
    8.2089    3.6265   20.8929 C   0  0  0  0  0  0  0  0  0  0  0  0
    7.3827    2.5724   20.5432 C   0  0  0  0  0  0  0  0  0  0  0  0
   11.1529    7.2750   20.8025 C   0  0  0  0  0  0  0  0  0  0  0  0
   10.2573    8.3215   20.9827 C   0  0  0  0  0  0  0  0  0  0  0  0
   11.1606    5.9378   21.2366 N   0  0  0  0  0  0  0  0  0  0  0  0
    9.8932   11.6736   19.0677 O   0  0  0  0  0  0  0  0  0  0  0  0
    6.4470    4.5850   22.2321 C   0  0  0  0  0  0  0  0  0  0  0  0
    8.4619    6.9895   22.2968 C   0  0  0  0  0  0  0  0  0  0  0  0
   12.2747    7.5102   20.0420 C   0  0  0  0  0  0  0  0  0  0  0  0
   14.2544    6.2142   19.4191 C   0  0  0  0  0  0  0  0  0  0  0  0
   13.0695    6.3705   20.0375 N   0  0  0  0  0  0  0  0  0  0  0  0
    9.1913    8.0876   21.8361 N   0  0  0  0  0  0  0  0  0  0  0  0
   10.4739    9.4813   20.2889 C   0  0  0  0  0  0  0  0  0  0  0  0
    7.5551    7.1270   23.1200 O   0  0  0  0  0  0  0  0  0  0  0  0
  1 11  4  0
  1 21  4  0
  2  4  1  0
  2  8  1  0
  2 11  1  0
  3 10  4  0
  3 14  4  0
  4  5  1  0
  4 18  2  0
  6 12  1  0
  6 17  4  0
  6 23  4  0
  7  9  1  0
  7 13  4  0
  7 19  4  0
  9 20  1  0
 10 19  4  0
 11 25  4  0
 13 14  4  0
 15 16  4  0
 15 17  4  0
 15 21  4  0
 16 24  1  0
 16 25  4  0
 20 24  1  0
 20 26  2  0
 21 23  4  0
 22 23  1  0
M  END
$$$$

 Created by Python create_sdf_string function

 26 28  0  0  0  0  0  0  0  0999 V2000
   12.4616    8.6700   19.4180 N   0  0  0  0  0  0  0  0  0  0  0  0
   11.8329   10.8148   18.6769 N   0  0  0  0  0  0  0  0  0  0  0  0
    6.1021    2.5564   21.0678 C   0  0  0  0  0  0  0  0  0  0  0  0
   10.9097   11.8051   18.4804 C   0  0  0  0  0  0  0  0  0  0  0  0
   11.2280   12.9135   17.5669 C   0  0  0  0  0  0  0  0  0  0  0  0
   12.3782    5.4231   20.7777 C   0  0  0  0  0  0  0  0  0  0  0  0
    7.7365    4.6508   21.6987 C   0  0  0  0  0  0  0  0  0  0  0  0
   13.0186   11.0102   18.0020 C   0  0  0  0  0  0  0  0  0  0  0  0
    8.6628    5.7088   21.8871 N   0  0  0  0  0  0  0  0  0  0  0  0
    5.6516    3.5258   21.9140 C   0  0  0  0  0  0  0  0  0  0  0  0
   11.5863    9.6815   19.4539 C   0  0  0  0  0  0  0  0  0  0  0  0
   12.9648    4.1543   20.9205 C   0  0  0  0  0  0  0  0  0  0  0  0
    8.2089    3.6265   20.8929 C   0  0  0  0  0  0  0  0  0  0  0  0
    7.3827    2.5724   20.5432 C   0  0  0  0  0  0  0  0  0  0  0  0
   11.1529    7.2750   20.8025 C   0  0  0  0  0  0  0  0  0  0  0  0
   10.2573    8.3215   20.9827 C   0  0  0  0  0  0  0  0  0  0  0  0
   11.1606    5.9378   21.2366 N   0  0  0  0  0  0  0  0  0  0  0  0
    9.8932   11.6736   19.0677 O   0  0  0  0  0  0  0  0  0  0  0  0
    6.4470    4.5850   22.2321 C   0  0  0  0  0  0  0  0  0  0  0  0
    8.4619    6.9895   22.2968 C   0  0  0  0  0  0  0  0  0  0  0  0
   12.2747    7.5102   20.0420 C   0  0  0  0  0  0  0  0  0  0  0  0
   14.2544    6.2142   19.4191 C   0  0  0  0  0  0  0  0  0  0  0  0
   13.0695    6.3705   20.0375 N   0  0  0  0  0  0  0  0  0  0  0  0
    9.1913    8.0876   21.8361 N   0  0  0  0  0  0  0  0  0  0  0  0
   10.4739    9.4813   20.2889 C   0  0  0  0  0  0  0  0  0  0  0  0
    7.5551    7.1270   23.1200 O   0  0  0  0  0  0  0  0  0  0  0  0
  1 11  4  0
  1 21  4  0
  2  4  1  0
  2  8  1  0
  2 11  1  0
  3 10  4  0
  3 14  4  0
  4  5  1  0
  4 18  2  0
  6 12  1  0
  6 17  4  0
  6 23  4  0
  7  9  1  0
  7 13  4  0
  7 19  4  0
  9 20  1  0
 10 19  4  0
 11 25  4  0
 13 14  4  0
 15 16  4  0
 15 17  4  0
 15 21  4  0
 16 24  1  0
 16 25  4  0
 20 24  1  0
 20 26  2  0
 21 23  4  0
 22 23  1  0
M  END
$$$$

 Created by Python create_sdf_string function

 26 28  0  0  0  0  0  0  0  0999 V2000
   12.4616    8.6700   19.4180 N   0  0  0  0  0  0  0  0  0  0  0  0
   11.8329   10.8148   18.6769 N   0  0  0  0  0  0  0  0  0  0  0  0
    6.1021    2.5564   21.0678 C   0  0  0  0  0  0  0  0  0  0  0  0
   10.9097   11.8051   18.4804 C   0  0  0  0  0  0  0  0  0  0  0  0
   11.2280   12.9135   17.5669 C   0  0  0  0  0  0  0  0  0  0  0  0
   12.3782    5.4231   20.7777 C   0  0  0  0  0  0  0  0  0  0  0  0
    7.7365    4.6508   21.6987 C   0  0  0  0  0  0  0  0  0  0  0  0
   13.0186   11.0102   18.0020 C   0  0  0  0  0  0  0  0  0  0  0  0
    8.6628    5.7088   21.8871 N   0  0  0  0  0  0  0  0  0  0  0  0
    5.6516    3.5258   21.9140 C   0  0  0  0  0  0  0  0  0  0  0  0
   11.5863    9.6815   19.4539 C   0  0  0  0  0  0  0  0  0  0  0  0
   12.9648    4.1543   20.9205 C   0  0  0  0  0  0  0  0  0  0  0  0
    8.2089    3.6265   20.8929 C   0  0  0  0  0  0  0  0  0  0  0  0
    7.3827    2.5724   20.5432 C   0  0  0  0  0  0  0  0  0  0  0  0
   11.1529    7.2750   20.8025 C   0  0  0  0  0  0  0  0  0  0  0  0
   10.2573    8.3215   20.9827 C   0  0  0  0  0  0  0  0  0  0  0  0
   11.1606    5.9378   21.2366 N   0  0  0  0  0  0  0  0  0  0  0  0
    9.8932   11.6736   19.0677 O   0  0  0  0  0  0  0  0  0  0  0  0
    6.4470    4.5850   22.2321 C   0  0  0  0  0  0  0  0  0  0  0  0
    8.4619    6.9895   22.2968 C   0  0  0  0  0  0  0  0  0  0  0  0
   12.2747    7.5102   20.0420 C   0  0  0  0  0  0  0  0  0  0  0  0
   14.2544    6.2142   19.4191 C   0  0  0  0  0  0  0  0  0  0  0  0
   13.0695    6.3705   20.0375 N   0  0  0  0  0  0  0  0  0  0  0  0
    9.1913    8.0876   21.8361 N   0  0  0  0  0  0  0  0  0  0  0  0
   10.4739    9.4813   20.2889 C   0  0  0  0  0  0  0  0  0  0  0  0
    7.5551    7.1270   23.1200 O   0  0  0  0  0  0  0  0  0  0  0  0
  1 11  4  0
  1 21  4  0
  2  4  1  0
  2  8  1  0
  2 11  1  0
  3 10  4  0
  3 14  4  0
  4  5  1  0
  4 18  2  0
  6 12  1  0
  6 17  4  0
  6 23  4  0
  7  9  1  0
  7 13  4  0
  7 19  4  0
  9 20  1  0
 10 19  4  0
 11 25  4  0
 13 14  4  0
 15 16  4  0
 15 17  4  0
 15 21  4  0
 16 24  1  0
 16 25  4  0
 20 24  1  0
 20 26  2  0
 21 23  4  0
 22 23  1  0
M  END
$$$$

 Created by Python create_sdf_string function

 26 28  0  0  0  0  0  0  0  0999 V2000
   12.4616    8.6700   19.4180 N   0  0  0  0  0  0  0  0  0  0  0  0
   11.8329   10.8148   18.6769 N   0  0  0  0  0  0  0  0  0  0  0  0
    6.1021    2.5564   21.0678 C   0  0  0  0  0  0  0  0  0  0  0  0
   10.9097   11.8051   18.4804 C   0  0  0  0  0  0  0  0  0  0  0  0
   11.2280   12.9135   17.5669 C   0  0  0  0  0  0  0  0  0  0  0  0
   12.3782    5.4231   20.7777 C   0  0  0  0  0  0  0  0  0  0  0  0
    7.7365    4.6508   21.6987 C   0  0  0  0  0  0  0  0  0  0  0  0
   13.0186   11.0102   18.0020 C   0  0  0  0  0  0  0  0  0  0  0  0
    8.6628    5.7088   21.8871 N   0  0  0  0  0  0  0  0  0  0  0  0
    5.6516    3.5258   21.9140 C   0  0  0  0  0  0  0  0  0  0  0  0
   11.5863    9.6815   19.4539 C   0  0  0  0  0  0  0  0  0  0  0  0
   12.9648    4.1543   20.9205 C   0  0  0  0  0  0  0  0  0  0  0  0
    8.2089    3.6265   20.8929 C   0  0  0  0  0  0  0  0  0  0  0  0
    7.3827    2.5724   20.5432 C   0  0  0  0  0  0  0  0  0  0  0  0
   11.1529    7.2750   20.8025 C   0  0  0  0  0  0  0  0  0  0  0  0
   10.2573    8.3215   20.9827 C   0  0  0  0  0  0  0  0  0  0  0  0
   11.1606    5.9378   21.2366 N   0  0  0  0  0  0  0  0  0  0  0  0
    9.8932   11.6736   19.0677 O   0  0  0  0  0  0  0  0  0  0  0  0
    6.4470    4.5850   22.2321 C   0  0  0  0  0  0  0  0  0  0  0  0
    8.4619    6.9895   22.2968 C   0  0  0  0  0  0  0  0  0  0  0  0
   12.2747    7.5102   20.0420 C   0  0  0  0  0  0  0  0  0  0  0  0
   14.2544    6.2142   19.4191 C   0  0  0  0  0  0  0  0  0  0  0  0
   13.0695    6.3705   20.0375 N   0  0  0  0  0  0  0  0  0  0  0  0
    9.1913    8.0876   21.8361 N   0  0  0  0  0  0  0  0  0  0  0  0
   10.4739    9.4813   20.2889 C   0  0  0  0  0  0  0  0  0  0  0  0
    7.5551    7.1270   23.1200 O   0  0  0  0  0  0  0  0  0  0  0  0
  1 11  4  0
  1 21  4  0
  2  4  1  0
  2  8  1  0
  2 11  1  0
  3 10  4  0
  3 14  4  0
  4  5  1  0
  4 18  2  0
  6 12  1  0
  6 17  4  0
  6 23  4  0
  7  9  1  0
  7 13  4  0
  7 19  4  0
  9 20  1  0
 10 19  4  0
 11 25  4  0
 13 14  4  0
 15 16  4  0
 15 17  4  0
 15 21  4  0
 16 24  1  0
 16 25  4  0
 20 24  1  0
 20 26  2  0
 21 23  4  0
 22 23  1  0
M  END
$$$$

 Created by Python create_sdf_string function

 26 28  0  0  0  0  0  0  0  0999 V2000
   12.4616    8.6700   19.4180 N   0  0  0  0  0  0  0  0  0  0  0  0
   11.8329   10.8148   18.6769 N   0  0  0  0  0  0  0  0  0  0  0  0
    6.1021    2.5564   21.0678 C   0  0  0  0  0  0  0  0  0  0  0  0
   10.9097   11.8051   18.4804 C   0  0  0  0  0  0  0  0  0  0  0  0
   11.2280   12.9135   17.5669 C   0  0  0  0  0  0  0  0  0  0  0  0
   12.3782    5.4231   20.7777 C   0  0  0  0  0  0  0  0  0  0  0  0
    7.7365    4.6508   21.6987 C   0  0  0  0  0  0  0  0  0  0  0  0
   13.0186   11.0102   18.0020 C   0  0  0  0  0  0  0  0  0  0  0  0
    8.6628    5.7088   21.8871 N   0  0  0  0  0  0  0  0  0  0  0  0
    5.6516    3.5258   21.9140 C   0  0  0  0  0  0  0  0  0  0  0  0
   11.5863    9.6815   19.4539 C   0  0  0  0  0  0  0  0  0  0  0  0
   12.9648    4.1543   20.9205 C   0  0  0  0  0  0  0  0  0  0  0  0
    8.2089    3.6265   20.8929 C   0  0  0  0  0  0  0  0  0  0  0  0
    7.3827    2.5724   20.5432 C   0  0  0  0  0  0  0  0  0  0  0  0
   11.1529    7.2750   20.8025 C   0  0  0  0  0  0  0  0  0  0  0  0
   10.2573    8.3215   20.9827 C   0  0  0  0  0  0  0  0  0  0  0  0
   11.1606    5.9378   21.2366 N   0  0  0  0  0  0  0  0  0  0  0  0
    9.8932   11.6736   19.0677 O   0  0  0  0  0  0  0  0  0  0  0  0
    6.4470    4.5850   22.2321 C   0  0  0  0  0  0  0  0  0  0  0  0
    8.4619    6.9895   22.2968 C   0  0  0  0  0  0  0  0  0  0  0  0
   12.2747    7.5102   20.0420 C   0  0  0  0  0  0  0  0  0  0  0  0
   14.2544    6.2142   19.4191 C   0  0  0  0  0  0  0  0  0  0  0  0
   13.0695    6.3705   20.0375 N   0  0  0  0  0  0  0  0  0  0  0  0
    9.1913    8.0876   21.8361 N   0  0  0  0  0  0  0  0  0  0  0  0
   10.4739    9.4813   20.2889 C   0  0  0  0  0  0  0  0  0  0  0  0
    7.5551    7.1270   23.1200 O   0  0  0  0  0  0  0  0  0  0  0  0
  1 11  4  0
  1 21  4  0
  2  4  1  0
  2  8  1  0
  2 11  1  0
  3 10  4  0
  3 14  4  0
  4  5  1  0
  4 18  2  0
  6 12  1  0
  6 17  4  0
  6 23  4  0
  7  9  1  0
  7 13  4  0
  7 19  4  0
  9 20  1  0
 10 19  4  0
 11 25  4  0
 13 14  4  0
 15 16  4  0
 15 17  4  0
 15 21  4  0
 16 24  1  0
 16 25  4  0
 20 24  1  0
 20 26  2  0
 21 23  4  0
 22 23  1  0
M  END
$$$$

 Created by Python create_sdf_string function

 26 28  0  0  0  0  0  0  0  0999 V2000
   12.4616    8.6700   19.4180 N   0  0  0  0  0  0  0  0  0  0  0  0
   11.8329   10.8148   18.6769 N   0  0  0  0  0  0  0  0  0  0  0  0
    6.1021    2.5564   21.0678 C   0  0  0  0  0  0  0  0  0  0  0  0
   10.9097   11.8051   18.4804 C   0  0  0  0  0  0  0  0  0  0  0  0
   11.2280   12.9135   17.5669 C   0  0  0  0  0  0  0  0  0  0  0  0
   12.3782    5.4231   20.7777 C   0  0  0  0  0  0  0  0  0  0  0  0
    7.7365    4.6508   21.6987 C   0  0  0  0  0  0  0  0  0  0  0  0
   13.0186   11.0102   18.0020 C   0  0  0  0  0  0  0  0  0  0  0  0
    8.6628    5.7088   21.8871 N   0  0  0  0  0  0  0  0  0  0  0  0
    5.6516    3.5258   21.9140 C   0  0  0  0  0  0  0  0  0  0  0  0
   11.5863    9.6815   19.4539 C   0  0  0  0  0  0  0  0  0  0  0  0
   12.9648    4.1543   20.9205 C   0  0  0  0  0  0  0  0  0  0  0  0
    8.2089    3.6265   20.8929 C   0  0  0  0  0  0  0  0  0  0  0  0
    7.3827    2.5724   20.5432 C   0  0  0  0  0  0  0  0  0  0  0  0
   11.1529    7.2750   20.8025 C   0  0  0  0  0  0  0  0  0  0  0  0
   10.2573    8.3215   20.9827 C   0  0  0  0  0  0  0  0  0  0  0  0
   11.1606    5.9378   21.2366 N   0  0  0  0  0  0  0  0  0  0  0  0
    9.8932   11.6736   19.0677 O   0  0  0  0  0  0  0  0  0  0  0  0
    6.4470    4.5850   22.2321 C   0  0  0  0  0  0  0  0  0  0  0  0
    8.4619    6.9895   22.2968 C   0  0  0  0  0  0  0  0  0  0  0  0
   12.2747    7.5102   20.0420 C   0  0  0  0  0  0  0  0  0  0  0  0
   14.2544    6.2142   19.4191 C   0  0  0  0  0  0  0  0  0  0  0  0
   13.0695    6.3705   20.0375 N   0  0  0  0  0  0  0  0  0  0  0  0
    9.1913    8.0876   21.8361 N   0  0  0  0  0  0  0  0  0  0  0  0
   10.4739    9.4813   20.2889 C   0  0  0  0  0  0  0  0  0  0  0  0
    7.5551    7.1270   23.1200 O   0  0  0  0  0  0  0  0  0  0  0  0
  1 11  4  0
  1 21  4  0
  2  4  1  0
  2  8  1  0
  2 11  1  0
  3 10  4  0
  3 14  4  0
  4  5  1  0
  4 18  2  0
  6 12  1  0
  6 17  4  0
  6 23  4  0
  7  9  1  0
  7 13  4  0
  7 19  4  0
  9 20  1  0
 10 19  4  0
 11 25  4  0
 13 14  4  0
 15 16  4  0
 15 17  4  0
 15 21  4  0
 16 24  1  0
 16 25  4  0
 20 24  1  0
 20 26  2  0
 21 23  4  0
 22 23  1  0
M  END
$$$$

 Created by Python create_sdf_string function

 26 28  0  0  0  0  0  0  0  0999 V2000
   12.4616    8.6700   19.4180 N   0  0  0  0  0  0  0  0  0  0  0  0
   11.8329   10.8148   18.6769 N   0  0  0  0  0  0  0  0  0  0  0  0
    6.1021    2.5564   21.0678 C   0  0  0  0  0  0  0  0  0  0  0  0
   10.9097   11.8051   18.4804 C   0  0  0  0  0  0  0  0  0  0  0  0
   11.2280   12.9135   17.5669 C   0  0  0  0  0  0  0  0  0  0  0  0
   12.3782    5.4231   20.7777 C   0  0  0  0  0  0  0  0  0  0  0  0
    7.7365    4.6508   21.6987 C   0  0  0  0  0  0  0  0  0  0  0  0
   13.0186   11.0102   18.0020 C   0  0  0  0  0  0  0  0  0  0  0  0
    8.6628    5.7088   21.8871 N   0  0  0  0  0  0  0  0  0  0  0  0
    5.6516    3.5258   21.9140 C   0  0  0  0  0  0  0  0  0  0  0  0
   11.5863    9.6815   19.4539 C   0  0  0  0  0  0  0  0  0  0  0  0
   12.9648    4.1543   20.9205 C   0  0  0  0  0  0  0  0  0  0  0  0
    8.2089    3.6265   20.8929 C   0  0  0  0  0  0  0  0  0  0  0  0
    7.3827    2.5724   20.5432 C   0  0  0  0  0  0  0  0  0  0  0  0
   11.1529    7.2750   20.8025 C   0  0  0  0  0  0  0  0  0  0  0  0
   10.2573    8.3215   20.9827 C   0  0  0  0  0  0  0  0  0  0  0  0
   11.1606    5.9378   21.2366 N   0  0  0  0  0  0  0  0  0  0  0  0
    9.8932   11.6736   19.0677 O   0  0  0  0  0  0  0  0  0  0  0  0
    6.4470    4.5850   22.2321 C   0  0  0  0  0  0  0  0  0  0  0  0
    8.4619    6.9895   22.2968 C   0  0  0  0  0  0  0  0  0  0  0  0
   12.2747    7.5102   20.0420 C   0  0  0  0  0  0  0  0  0  0  0  0
   14.2544    6.2142   19.4191 C   0  0  0  0  0  0  0  0  0  0  0  0
   13.0695    6.3705   20.0375 N   0  0  0  0  0  0  0  0  0  0  0  0
    9.1913    8.0876   21.8361 N   0  0  0  0  0  0  0  0  0  0  0  0
   10.4739    9.4813   20.2889 C   0  0  0  0  0  0  0  0  0  0  0  0
    7.5551    7.1270   23.1200 O   0  0  0  0  0  0  0  0  0  0  0  0
  1 11  4  0
  1 21  4  0
  2  4  1  0
  2  8  1  0
  2 11  1  0
  3 10  4  0
  3 14  4  0
  4  5  1  0
  4 18  2  0
  6 12  1  0
  6 17  4  0
  6 23  4  0
  7  9  1  0
  7 13  4  0
  7 19  4  0
  9 20  1  0
 10 19  4  0
 11 25  4  0
 13 14  4  0
 15 16  4  0
 15 17  4  0
 15 21  4  0
 16 24  1  0
 16 25  4  0
 20 24  1  0
 20 26  2  0
 21 23  4  0
 22 23  1  0
M  END
$$$$

 Created by Python create_sdf_string function

 26 28  0  0  0  0  0  0  0  0999 V2000
   12.4616    8.6700   19.4180 N   0  0  0  0  0  0  0  0  0  0  0  0
   11.8329   10.8148   18.6769 N   0  0  0  0  0  0  0  0  0  0  0  0
    6.1021    2.5564   21.0678 C   0  0  0  0  0  0  0  0  0  0  0  0
   10.9097   11.8051   18.4804 C   0  0  0  0  0  0  0  0  0  0  0  0
   11.2280   12.9135   17.5669 C   0  0  0  0  0  0  0  0  0  0  0  0
   12.3782    5.4231   20.7777 C   0  0  0  0  0  0  0  0  0  0  0  0
    7.7365    4.6508   21.6987 C   0  0  0  0  0  0  0  0  0  0  0  0
   13.0186   11.0102   18.0020 C   0  0  0  0  0  0  0  0  0  0  0  0
    8.6628    5.7088   21.8871 N   0  0  0  0  0  0  0  0  0  0  0  0
    5.6516    3.5258   21.9140 C   0  0  0  0  0  0  0  0  0  0  0  0
   11.5863    9.6815   19.4539 C   0  0  0  0  0  0  0  0  0  0  0  0
   12.9648    4.1543   20.9205 C   0  0  0  0  0  0  0  0  0  0  0  0
    8.2089    3.6265   20.8929 C   0  0  0  0  0  0  0  0  0  0  0  0
    7.3827    2.5724   20.5432 C   0  0  0  0  0  0  0  0  0  0  0  0
   11.1529    7.2750   20.8025 C   0  0  0  0  0  0  0  0  0  0  0  0
   10.2573    8.3215   20.9827 C   0  0  0  0  0  0  0  0  0  0  0  0
   11.1606    5.9378   21.2366 N   0  0  0  0  0  0  0  0  0  0  0  0
    9.8932   11.6736   19.0677 O   0  0  0  0  0  0  0  0  0  0  0  0
    6.4470    4.5850   22.2321 C   0  0  0  0  0  0  0  0  0  0  0  0
    8.4619    6.9895   22.2968 C   0  0  0  0  0  0  0  0  0  0  0  0
   12.2747    7.5102   20.0420 C   0  0  0  0  0  0  0  0  0  0  0  0
   14.2544    6.2142   19.4191 C   0  0  0  0  0  0  0  0  0  0  0  0
   13.0695    6.3705   20.0375 N   0  0  0  0  0  0  0  0  0  0  0  0
    9.1913    8.0876   21.8361 N   0  0  0  0  0  0  0  0  0  0  0  0
   10.4739    9.4813   20.2889 C   0  0  0  0  0  0  0  0  0  0  0  0
    7.5551    7.1270   23.1200 O   0  0  0  0  0  0  0  0  0  0  0  0
  1 11  4  0
  1 21  4  0
  2  4  1  0
  2  8  1  0
  2 11  1  0
  3 10  4  0
  3 14  4  0
  4  5  1  0
  4 18  2  0
  6 12  1  0
  6 17  4  0
  6 23  4  0
  7  9  1  0
  7 13  4  0
  7 19  4  0
  9 20  1  0
 10 19  4  0
 11 25  4  0
 13 14  4  0
 15 16  4  0
 15 17  4  0
 15 21  4  0
 16 24  1  0
 16 25  4  0
 20 24  1  0
 20 26  2  0
 21 23  4  0
 22 23  1  0
M  END
$$$$

 Created by Python create_sdf_string function

 26 28  0  0  0  0  0  0  0  0999 V2000
   12.4616    8.6700   19.4180 N   0  0  0  0  0  0  0  0  0  0  0  0
   11.8329   10.8148   18.6769 N   0  0  0  0  0  0  0  0  0  0  0  0
    6.1021    2.5564   21.0678 C   0  0  0  0  0  0  0  0  0  0  0  0
   10.9097   11.8051   18.4804 C   0  0  0  0  0  0  0  0  0  0  0  0
   11.2280   12.9135   17.5669 C   0  0  0  0  0  0  0  0  0  0  0  0
   12.3782    5.4231   20.7777 C   0  0  0  0  0  0  0  0  0  0  0  0
    7.7365    4.6508   21.6987 C   0  0  0  0  0  0  0  0  0  0  0  0
   13.0186   11.0102   18.0020 C   0  0  0  0  0  0  0  0  0  0  0  0
    8.6628    5.7088   21.8871 N   0  0  0  0  0  0  0  0  0  0  0  0
    5.6516    3.5258   21.9140 C   0  0  0  0  0  0  0  0  0  0  0  0
   11.5863    9.6815   19.4539 C   0  0  0  0  0  0  0  0  0  0  0  0
   12.9648    4.1543   20.9205 C   0  0  0  0  0  0  0  0  0  0  0  0
    8.2089    3.6265   20.8929 C   0  0  0  0  0  0  0  0  0  0  0  0
    7.3827    2.5724   20.5432 C   0  0  0  0  0  0  0  0  0  0  0  0
   11.1529    7.2750   20.8025 C   0  0  0  0  0  0  0  0  0  0  0  0
   10.2573    8.3215   20.9827 C   0  0  0  0  0  0  0  0  0  0  0  0
   11.1606    5.9378   21.2366 N   0  0  0  0  0  0  0  0  0  0  0  0
    9.8932   11.6736   19.0677 O   0  0  0  0  0  0  0  0  0  0  0  0
    6.4470    4.5850   22.2321 C   0  0  0  0  0  0  0  0  0  0  0  0
    8.4619    6.9895   22.2968 C   0  0  0  0  0  0  0  0  0  0  0  0
   12.2747    7.5102   20.0420 C   0  0  0  0  0  0  0  0  0  0  0  0
   14.2544    6.2142   19.4191 C   0  0  0  0  0  0  0  0  0  0  0  0
   13.0695    6.3705   20.0375 N   0  0  0  0  0  0  0  0  0  0  0  0
    9.1913    8.0876   21.8361 N   0  0  0  0  0  0  0  0  0  0  0  0
   10.4739    9.4813   20.2889 C   0  0  0  0  0  0  0  0  0  0  0  0
    7.5551    7.1270   23.1200 O   0  0  0  0  0  0  0  0  0  0  0  0
  1 11  4  0
  1 21  4  0
  2  4  1  0
  2  8  1  0
  2 11  1  0
  3 10  4  0
  3 14  4  0
  4  5  1  0
  4 18  2  0
  6 12  1  0
  6 17  4  0
  6 23  4  0
  7  9  1  0
  7 13  4  0
  7 19  4  0
  9 20  1  0
 10 19  4  0
 11 25  4  0
 13 14  4  0
 15 16  4  0
 15 17  4  0
 15 21  4  0
 16 24  1  0
 16 25  4  0
 20 24  1  0
 20 26  2  0
 21 23  4  0
 22 23  1  0
M  END
$$$$

 Created by Python create_sdf_string function

 26 28  0  0  0  0  0  0  0  0999 V2000
   12.4616    8.6700   19.4180 N   0  0  0  0  0  0  0  0  0  0  0  0
   11.8329   10.8148   18.6769 N   0  0  0  0  0  0  0  0  0  0  0  0
    6.1021    2.5564   21.0678 C   0  0  0  0  0  0  0  0  0  0  0  0
   10.9097   11.8051   18.4804 C   0  0  0  0  0  0  0  0  0  0  0  0
   11.2280   12.9135   17.5669 C   0  0  0  0  0  0  0  0  0  0  0  0
   12.3782    5.4231   20.7777 C   0  0  0  0  0  0  0  0  0  0  0  0
    7.7365    4.6508   21.6987 C   0  0  0  0  0  0  0  0  0  0  0  0
   13.0186   11.0102   18.0020 C   0  0  0  0  0  0  0  0  0  0  0  0
    8.6628    5.7088   21.8871 N   0  0  0  0  0  0  0  0  0  0  0  0
    5.6516    3.5258   21.9140 C   0  0  0  0  0  0  0  0  0  0  0  0
   11.5863    9.6815   19.4539 C   0  0  0  0  0  0  0  0  0  0  0  0
   12.9648    4.1543   20.9205 C   0  0  0  0  0  0  0  0  0  0  0  0
    8.2089    3.6265   20.8929 C   0  0  0  0  0  0  0  0  0  0  0  0
    7.3827    2.5724   20.5432 C   0  0  0  0  0  0  0  0  0  0  0  0
   11.1529    7.2750   20.8025 C   0  0  0  0  0  0  0  0  0  0  0  0
   10.2573    8.3215   20.9827 C   0  0  0  0  0  0  0  0  0  0  0  0
   11.1606    5.9378   21.2366 N   0  0  0  0  0  0  0  0  0  0  0  0
    9.8932   11.6736   19.0677 O   0  0  0  0  0  0  0  0  0  0  0  0
    6.4470    4.5850   22.2321 C   0  0  0  0  0  0  0  0  0  0  0  0
    8.4619    6.9895   22.2968 C   0  0  0  0  0  0  0  0  0  0  0  0
   12.2747    7.5102   20.0420 C   0  0  0  0  0  0  0  0  0  0  0  0
   14.2544    6.2142   19.4191 C   0  0  0  0  0  0  0  0  0  0  0  0
   13.0695    6.3705   20.0375 N   0  0  0  0  0  0  0  0  0  0  0  0
    9.1913    8.0876   21.8361 N   0  0  0  0  0  0  0  0  0  0  0  0
   10.4739    9.4813   20.2889 C   0  0  0  0  0  0  0  0  0  0  0  0
    7.5551    7.1270   23.1200 O   0  0  0  0  0  0  0  0  0  0  0  0
  1 11  4  0
  1 21  4  0
  2  4  1  0
  2  8  1  0
  2 11  1  0
  3 10  4  0
  3 14  4  0
  4  5  1  0
  4 18  2  0
  6 12  1  0
  6 17  4  0
  6 23  4  0
  7  9  1  0
  7 13  4  0
  7 19  4  0
  9 20  1  0
 10 19  4  0
 11 25  4  0
 13 14  4  0
 15 16  4  0
 15 17  4  0
 15 21  4  0
 16 24  1  0
 16 25  4  0
 20 24  1  0
 20 26  2  0
 21 23  4  0
 22 23  1  0
M  END
$$$$

 Created by Python create_sdf_string function

 26 28  0  0  0  0  0  0  0  0999 V2000
   12.4616    8.6700   19.4180 N   0  0  0  0  0  0  0  0  0  0  0  0
   11.8329   10.8148   18.6769 N   0  0  0  0  0  0  0  0  0  0  0  0
    6.1021    2.5564   21.0678 C   0  0  0  0  0  0  0  0  0  0  0  0
   10.9097   11.8051   18.4804 C   0  0  0  0  0  0  0  0  0  0  0  0
   11.2280   12.9135   17.5669 C   0  0  0  0  0  0  0  0  0  0  0  0
   12.3782    5.4231   20.7777 C   0  0  0  0  0  0  0  0  0  0  0  0
    7.7365    4.6508   21.6987 C   0  0  0  0  0  0  0  0  0  0  0  0
   13.0186   11.0102   18.0020 C   0  0  0  0  0  0  0  0  0  0  0  0
    8.6628    5.7088   21.8871 N   0  0  0  0  0  0  0  0  0  0  0  0
    5.6516    3.5258   21.9140 C   0  0  0  0  0  0  0  0  0  0  0  0
   11.5863    9.6815   19.4539 C   0  0  0  0  0  0  0  0  0  0  0  0
   12.9648    4.1543   20.9205 C   0  0  0  0  0  0  0  0  0  0  0  0
    8.2089    3.6265   20.8929 C   0  0  0  0  0  0  0  0  0  0  0  0
    7.3827    2.5724   20.5432 C   0  0  0  0  0  0  0  0  0  0  0  0
   11.1529    7.2750   20.8025 C   0  0  0  0  0  0  0  0  0  0  0  0
   10.2573    8.3215   20.9827 C   0  0  0  0  0  0  0  0  0  0  0  0
   11.1606    5.9378   21.2366 N   0  0  0  0  0  0  0  0  0  0  0  0
    9.8932   11.6736   19.0677 O   0  0  0  0  0  0  0  0  0  0  0  0
    6.4470    4.5850   22.2321 C   0  0  0  0  0  0  0  0  0  0  0  0
    8.4619    6.9895   22.2968 C   0  0  0  0  0  0  0  0  0  0  0  0
   12.2747    7.5102   20.0420 C   0  0  0  0  0  0  0  0  0  0  0  0
   14.2544    6.2142   19.4191 C   0  0  0  0  0  0  0  0  0  0  0  0
   13.0695    6.3705   20.0375 N   0  0  0  0  0  0  0  0  0  0  0  0
    9.1913    8.0876   21.8361 N   0  0  0  0  0  0  0  0  0  0  0  0
   10.4739    9.4813   20.2889 C   0  0  0  0  0  0  0  0  0  0  0  0
    7.5551    7.1270   23.1200 O   0  0  0  0  0  0  0  0  0  0  0  0
  1 11  4  0
  1 21  4  0
  2  4  1  0
  2  8  1  0
  2 11  1  0
  3 10  4  0
  3 14  4  0
  4  5  1  0
  4 18  2  0
  6 12  1  0
  6 17  4  0
  6 23  4  0
  7  9  1  0
  7 13  4  0
  7 19  4  0
  9 20  1  0
 10 19  4  0
 11 25  4  0
 13 14  4  0
 15 16  4  0
 15 17  4  0
 15 21  4  0
 16 24  1  0
 16 25  4  0
 20 24  1  0
 20 26  2  0
 21 23  4  0
 22 23  1  0
M  END
$$$$

 Created by Python create_sdf_string function

 26 28  0  0  0  0  0  0  0  0999 V2000
   12.4616    8.6700   19.4180 N   0  0  0  0  0  0  0  0  0  0  0  0
   11.8329   10.8148   18.6769 N   0  0  0  0  0  0  0  0  0  0  0  0
    6.1021    2.5564   21.0678 C   0  0  0  0  0  0  0  0  0  0  0  0
   10.9097   11.8051   18.4804 C   0  0  0  0  0  0  0  0  0  0  0  0
   11.2280   12.9135   17.5669 C   0  0  0  0  0  0  0  0  0  0  0  0
   12.3782    5.4231   20.7777 C   0  0  0  0  0  0  0  0  0  0  0  0
    7.7365    4.6508   21.6987 C   0  0  0  0  0  0  0  0  0  0  0  0
   13.0186   11.0102   18.0020 C   0  0  0  0  0  0  0  0  0  0  0  0
    8.6628    5.7088   21.8871 N   0  0  0  0  0  0  0  0  0  0  0  0
    5.6516    3.5258   21.9140 C   0  0  0  0  0  0  0  0  0  0  0  0
   11.5863    9.6815   19.4539 C   0  0  0  0  0  0  0  0  0  0  0  0
   12.9648    4.1543   20.9205 C   0  0  0  0  0  0  0  0  0  0  0  0
    8.2089    3.6265   20.8929 C   0  0  0  0  0  0  0  0  0  0  0  0
    7.3827    2.5724   20.5432 C   0  0  0  0  0  0  0  0  0  0  0  0
   11.1529    7.2750   20.8025 C   0  0  0  0  0  0  0  0  0  0  0  0
   10.2573    8.3215   20.9827 C   0  0  0  0  0  0  0  0  0  0  0  0
   11.1606    5.9378   21.2366 N   0  0  0  0  0  0  0  0  0  0  0  0
    9.8932   11.6736   19.0677 O   0  0  0  0  0  0  0  0  0  0  0  0
    6.4470    4.5850   22.2321 C   0  0  0  0  0  0  0  0  0  0  0  0
    8.4619    6.9895   22.2968 C   0  0  0  0  0  0  0  0  0  0  0  0
   12.2747    7.5102   20.0420 C   0  0  0  0  0  0  0  0  0  0  0  0
   14.2544    6.2142   19.4191 C   0  0  0  0  0  0  0  0  0  0  0  0
   13.0695    6.3705   20.0375 N   0  0  0  0  0  0  0  0  0  0  0  0
    9.1913    8.0876   21.8361 N   0  0  0  0  0  0  0  0  0  0  0  0
   10.4739    9.4813   20.2889 C   0  0  0  0  0  0  0  0  0  0  0  0
    7.5551    7.1270   23.1200 O   0  0  0  0  0  0  0  0  0  0  0  0
  1 11  4  0
  1 21  4  0
  2  4  1  0
  2  8  1  0
  2 11  1  0
  3 10  4  0
  3 14  4  0
  4  5  1  0
  4 18  2  0
  6 12  1  0
  6 17  4  0
  6 23  4  0
  7  9  1  0
  7 13  4  0
  7 19  4  0
  9 20  1  0
 10 19  4  0
 11 25  4  0
 13 14  4  0
 15 16  4  0
 15 17  4  0
 15 21  4  0
 16 24  1  0
 16 25  4  0
 20 24  1  0
 20 26  2  0
 21 23  4  0
 22 23  1  0
M  END
$$$$

 Created by Python create_sdf_string function

 26 28  0  0  0  0  0  0  0  0999 V2000
   12.4616    8.6700   19.4180 N   0  0  0  0  0  0  0  0  0  0  0  0
   11.8329   10.8148   18.6769 N   0  0  0  0  0  0  0  0  0  0  0  0
    6.1021    2.5564   21.0678 C   0  0  0  0  0  0  0  0  0  0  0  0
   10.9097   11.8051   18.4804 C   0  0  0  0  0  0  0  0  0  0  0  0
   11.2280   12.9135   17.5669 C   0  0  0  0  0  0  0  0  0  0  0  0
   12.3782    5.4231   20.7777 C   0  0  0  0  0  0  0  0  0  0  0  0
    7.7365    4.6508   21.6987 C   0  0  0  0  0  0  0  0  0  0  0  0
   13.0186   11.0102   18.0020 C   0  0  0  0  0  0  0  0  0  0  0  0
    8.6628    5.7088   21.8871 N   0  0  0  0  0  0  0  0  0  0  0  0
    5.6516    3.5258   21.9140 C   0  0  0  0  0  0  0  0  0  0  0  0
   11.5863    9.6815   19.4539 C   0  0  0  0  0  0  0  0  0  0  0  0
   12.9648    4.1543   20.9205 C   0  0  0  0  0  0  0  0  0  0  0  0
    8.2089    3.6265   20.8929 C   0  0  0  0  0  0  0  0  0  0  0  0
    7.3827    2.5724   20.5432 C   0  0  0  0  0  0  0  0  0  0  0  0
   11.1529    7.2750   20.8025 C   0  0  0  0  0  0  0  0  0  0  0  0
   10.2573    8.3215   20.9827 C   0  0  0  0  0  0  0  0  0  0  0  0
   11.1606    5.9378   21.2366 N   0  0  0  0  0  0  0  0  0  0  0  0
    9.8932   11.6736   19.0677 O   0  0  0  0  0  0  0  0  0  0  0  0
    6.4470    4.5850   22.2321 C   0  0  0  0  0  0  0  0  0  0  0  0
    8.4619    6.9895   22.2968 C   0  0  0  0  0  0  0  0  0  0  0  0
   12.2747    7.5102   20.0420 C   0  0  0  0  0  0  0  0  0  0  0  0
   14.2544    6.2142   19.4191 C   0  0  0  0  0  0  0  0  0  0  0  0
   13.0695    6.3705   20.0375 N   0  0  0  0  0  0  0  0  0  0  0  0
    9.1913    8.0876   21.8361 N   0  0  0  0  0  0  0  0  0  0  0  0
   10.4739    9.4813   20.2889 C   0  0  0  0  0  0  0  0  0  0  0  0
    7.5551    7.1270   23.1200 O   0  0  0  0  0  0  0  0  0  0  0  0
  1 11  4  0
  1 21  4  0
  2  4  1  0
  2  8  1  0
  2 11  1  0
  3 10  4  0
  3 14  4  0
  4  5  1  0
  4 18  2  0
  6 12  1  0
  6 17  4  0
  6 23  4  0
  7  9  1  0
  7 13  4  0
  7 19  4  0
  9 20  1  0
 10 19  4  0
 11 25  4  0
 13 14  4  0
 15 16  4  0
 15 17  4  0
 15 21  4  0
 16 24  1  0
 16 25  4  0
 20 24  1  0
 20 26  2  0
 21 23  4  0
 22 23  1  0
M  END
$$$$

 Created by Python create_sdf_string function

 26 28  0  0  0  0  0  0  0  0999 V2000
   12.4616    8.6700   19.4180 N   0  0  0  0  0  0  0  0  0  0  0  0
   11.8329   10.8148   18.6769 N   0  0  0  0  0  0  0  0  0  0  0  0
    6.1021    2.5564   21.0678 C   0  0  0  0  0  0  0  0  0  0  0  0
   10.9097   11.8051   18.4804 C   0  0  0  0  0  0  0  0  0  0  0  0
   11.2280   12.9135   17.5669 C   0  0  0  0  0  0  0  0  0  0  0  0
   12.3782    5.4231   20.7777 C   0  0  0  0  0  0  0  0  0  0  0  0
    7.7365    4.6508   21.6987 C   0  0  0  0  0  0  0  0  0  0  0  0
   13.0186   11.0102   18.0020 C   0  0  0  0  0  0  0  0  0  0  0  0
    8.6628    5.7088   21.8871 N   0  0  0  0  0  0  0  0  0  0  0  0
    5.6516    3.5258   21.9140 C   0  0  0  0  0  0  0  0  0  0  0  0
   11.5863    9.6815   19.4539 C   0  0  0  0  0  0  0  0  0  0  0  0
   12.9648    4.1543   20.9205 C   0  0  0  0  0  0  0  0  0  0  0  0
    8.2089    3.6265   20.8929 C   0  0  0  0  0  0  0  0  0  0  0  0
    7.3827    2.5724   20.5432 C   0  0  0  0  0  0  0  0  0  0  0  0
   11.1529    7.2750   20.8025 C   0  0  0  0  0  0  0  0  0  0  0  0
   10.2573    8.3215   20.9827 C   0  0  0  0  0  0  0  0  0  0  0  0
   11.1606    5.9378   21.2366 N   0  0  0  0  0  0  0  0  0  0  0  0
    9.8932   11.6736   19.0677 O   0  0  0  0  0  0  0  0  0  0  0  0
    6.4470    4.5850   22.2321 C   0  0  0  0  0  0  0  0  0  0  0  0
    8.4619    6.9895   22.2968 C   0  0  0  0  0  0  0  0  0  0  0  0
   12.2747    7.5102   20.0420 C   0  0  0  0  0  0  0  0  0  0  0  0
   14.2544    6.2142   19.4191 C   0  0  0  0  0  0  0  0  0  0  0  0
   13.0695    6.3705   20.0375 N   0  0  0  0  0  0  0  0  0  0  0  0
    9.1913    8.0876   21.8361 N   0  0  0  0  0  0  0  0  0  0  0  0
   10.4739    9.4813   20.2889 C   0  0  0  0  0  0  0  0  0  0  0  0
    7.5551    7.1270   23.1200 O   0  0  0  0  0  0  0  0  0  0  0  0
  1 11  4  0
  1 21  4  0
  2  4  1  0
  2  8  1  0
  2 11  1  0
  3 10  4  0
  3 14  4  0
  4  5  1  0
  4 18  2  0
  6 12  1  0
  6 17  4  0
  6 23  4  0
  7  9  1  0
  7 13  4  0
  7 19  4  0
  9 20  1  0
 10 19  4  0
 11 25  4  0
 13 14  4  0
 15 16  4  0
 15 17  4  0
 15 21  4  0
 16 24  1  0
 16 25  4  0
 20 24  1  0
 20 26  2  0
 21 23  4  0
 22 23  1  0
M  END
$$$$

 Created by Python create_sdf_string function

 26 28  0  0  0  0  0  0  0  0999 V2000
   12.4616    8.6700   19.4180 N   0  0  0  0  0  0  0  0  0  0  0  0
   11.8329   10.8148   18.6769 N   0  0  0  0  0  0  0  0  0  0  0  0
    6.1021    2.5564   21.0678 C   0  0  0  0  0  0  0  0  0  0  0  0
   10.9097   11.8051   18.4804 C   0  0  0  0  0  0  0  0  0  0  0  0
   11.2280   12.9135   17.5669 C   0  0  0  0  0  0  0  0  0  0  0  0
   12.3782    5.4231   20.7777 C   0  0  0  0  0  0  0  0  0  0  0  0
    7.7365    4.6508   21.6987 C   0  0  0  0  0  0  0  0  0  0  0  0
   13.0186   11.0102   18.0020 C   0  0  0  0  0  0  0  0  0  0  0  0
    8.6628    5.7088   21.8871 N   0  0  0  0  0  0  0  0  0  0  0  0
    5.6516    3.5258   21.9140 C   0  0  0  0  0  0  0  0  0  0  0  0
   11.5863    9.6815   19.4539 C   0  0  0  0  0  0  0  0  0  0  0  0
   12.9648    4.1543   20.9205 C   0  0  0  0  0  0  0  0  0  0  0  0
    8.2089    3.6265   20.8929 C   0  0  0  0  0  0  0  0  0  0  0  0
    7.3827    2.5724   20.5432 C   0  0  0  0  0  0  0  0  0  0  0  0
   11.1529    7.2750   20.8025 C   0  0  0  0  0  0  0  0  0  0  0  0
   10.2573    8.3215   20.9827 C   0  0  0  0  0  0  0  0  0  0  0  0
   11.1606    5.9378   21.2366 N   0  0  0  0  0  0  0  0  0  0  0  0
    9.8932   11.6736   19.0677 O   0  0  0  0  0  0  0  0  0  0  0  0
    6.4470    4.5850   22.2321 C   0  0  0  0  0  0  0  0  0  0  0  0
    8.4619    6.9895   22.2968 C   0  0  0  0  0  0  0  0  0  0  0  0
   12.2747    7.5102   20.0420 C   0  0  0  0  0  0  0  0  0  0  0  0
   14.2544    6.2142   19.4191 C   0  0  0  0  0  0  0  0  0  0  0  0
   13.0695    6.3705   20.0375 N   0  0  0  0  0  0  0  0  0  0  0  0
    9.1913    8.0876   21.8361 N   0  0  0  0  0  0  0  0  0  0  0  0
   10.4739    9.4813   20.2889 C   0  0  0  0  0  0  0  0  0  0  0  0
    7.5551    7.1270   23.1200 O   0  0  0  0  0  0  0  0  0  0  0  0
  1 11  4  0
  1 21  4  0
  2  4  1  0
  2  8  1  0
  2 11  1  0
  3 10  4  0
  3 14  4  0
  4  5  1  0
  4 18  2  0
  6 12  1  0
  6 17  4  0
  6 23  4  0
  7  9  1  0
  7 13  4  0
  7 19  4  0
  9 20  1  0
 10 19  4  0
 11 25  4  0
 13 14  4  0
 15 16  4  0
 15 17  4  0
 15 21  4  0
 16 24  1  0
 16 25  4  0
 20 24  1  0
 20 26  2  0
 21 23  4  0
 22 23  1  0
M  END
$$$$

 Created by Python create_sdf_string function

 26 28  0  0  0  0  0  0  0  0999 V2000
   12.4616    8.6700   19.4180 N   0  0  0  0  0  0  0  0  0  0  0  0
   11.8329   10.8148   18.6769 N   0  0  0  0  0  0  0  0  0  0  0  0
    6.1021    2.5564   21.0678 C   0  0  0  0  0  0  0  0  0  0  0  0
   10.9097   11.8051   18.4804 C   0  0  0  0  0  0  0  0  0  0  0  0
   11.2280   12.9135   17.5669 C   0  0  0  0  0  0  0  0  0  0  0  0
   12.3782    5.4231   20.7777 C   0  0  0  0  0  0  0  0  0  0  0  0
    7.7365    4.6508   21.6987 C   0  0  0  0  0  0  0  0  0  0  0  0
   13.0186   11.0102   18.0020 C   0  0  0  0  0  0  0  0  0  0  0  0
    8.6628    5.7088   21.8871 N   0  0  0  0  0  0  0  0  0  0  0  0
    5.6516    3.5258   21.9140 C   0  0  0  0  0  0  0  0  0  0  0  0
   11.5863    9.6815   19.4539 C   0  0  0  0  0  0  0  0  0  0  0  0
   12.9648    4.1543   20.9205 C   0  0  0  0  0  0  0  0  0  0  0  0
    8.2089    3.6265   20.8929 C   0  0  0  0  0  0  0  0  0  0  0  0
    7.3827    2.5724   20.5432 C   0  0  0  0  0  0  0  0  0  0  0  0
   11.1529    7.2750   20.8025 C   0  0  0  0  0  0  0  0  0  0  0  0
   10.2573    8.3215   20.9827 C   0  0  0  0  0  0  0  0  0  0  0  0
   11.1606    5.9378   21.2366 N   0  0  0  0  0  0  0  0  0  0  0  0
    9.8932   11.6736   19.0677 O   0  0  0  0  0  0  0  0  0  0  0  0
    6.4470    4.5850   22.2321 C   0  0  0  0  0  0  0  0  0  0  0  0
    8.4619    6.9895   22.2968 C   0  0  0  0  0  0  0  0  0  0  0  0
   12.2747    7.5102   20.0420 C   0  0  0  0  0  0  0  0  0  0  0  0
   14.2544    6.2142   19.4191 C   0  0  0  0  0  0  0  0  0  0  0  0
   13.0695    6.3705   20.0375 N   0  0  0  0  0  0  0  0  0  0  0  0
    9.1913    8.0876   21.8361 N   0  0  0  0  0  0  0  0  0  0  0  0
   10.4739    9.4813   20.2889 C   0  0  0  0  0  0  0  0  0  0  0  0
    7.5551    7.1270   23.1200 O   0  0  0  0  0  0  0  0  0  0  0  0
  1 11  4  0
  1 21  4  0
  2  4  1  0
  2  8  1  0
  2 11  1  0
  3 10  4  0
  3 14  4  0
  4  5  1  0
  4 18  2  0
  6 12  1  0
  6 17  4  0
  6 23  4  0
  7  9  1  0
  7 13  4  0
  7 19  4  0
  9 20  1  0
 10 19  4  0
 11 25  4  0
 13 14  4  0
 15 16  4  0
 15 17  4  0
 15 21  4  0
 16 24  1  0
 16 25  4  0
 20 24  1  0
 20 26  2  0
 21 23  4  0
 22 23  1  0
M  END
$$$$

 Created by Python create_sdf_string function

 26 28  0  0  0  0  0  0  0  0999 V2000
   12.4616    8.6700   19.4180 N   0  0  0  0  0  0  0  0  0  0  0  0
   11.8329   10.8148   18.6769 N   0  0  0  0  0  0  0  0  0  0  0  0
    6.1021    2.5564   21.0678 C   0  0  0  0  0  0  0  0  0  0  0  0
   10.9097   11.8051   18.4804 C   0  0  0  0  0  0  0  0  0  0  0  0
   11.2280   12.9135   17.5669 C   0  0  0  0  0  0  0  0  0  0  0  0
   12.3782    5.4231   20.7777 C   0  0  0  0  0  0  0  0  0  0  0  0
    7.7365    4.6508   21.6987 C   0  0  0  0  0  0  0  0  0  0  0  0
   13.0186   11.0102   18.0020 C   0  0  0  0  0  0  0  0  0  0  0  0
    8.6628    5.7088   21.8871 N   0  0  0  0  0  0  0  0  0  0  0  0
    5.6516    3.5258   21.9140 C   0  0  0  0  0  0  0  0  0  0  0  0
   11.5863    9.6815   19.4539 C   0  0  0  0  0  0  0  0  0  0  0  0
   12.9648    4.1543   20.9205 C   0  0  0  0  0  0  0  0  0  0  0  0
    8.2089    3.6265   20.8929 C   0  0  0  0  0  0  0  0  0  0  0  0
    7.3827    2.5724   20.5432 C   0  0  0  0  0  0  0  0  0  0  0  0
   11.1529    7.2750   20.8025 C   0  0  0  0  0  0  0  0  0  0  0  0
   10.2573    8.3215   20.9827 C   0  0  0  0  0  0  0  0  0  0  0  0
   11.1606    5.9378   21.2366 N   0  0  0  0  0  0  0  0  0  0  0  0
    9.8932   11.6736   19.0677 O   0  0  0  0  0  0  0  0  0  0  0  0
    6.4470    4.5850   22.2321 C   0  0  0  0  0  0  0  0  0  0  0  0
    8.4619    6.9895   22.2968 C   0  0  0  0  0  0  0  0  0  0  0  0
   12.2747    7.5102   20.0420 C   0  0  0  0  0  0  0  0  0  0  0  0
   14.2544    6.2142   19.4191 C   0  0  0  0  0  0  0  0  0  0  0  0
   13.0695    6.3705   20.0375 N   0  0  0  0  0  0  0  0  0  0  0  0
    9.1913    8.0876   21.8361 N   0  0  0  0  0  0  0  0  0  0  0  0
   10.4739    9.4813   20.2889 C   0  0  0  0  0  0  0  0  0  0  0  0
    7.5551    7.1270   23.1200 O   0  0  0  0  0  0  0  0  0  0  0  0
  1 11  4  0
  1 21  4  0
  2  4  1  0
  2  8  1  0
  2 11  1  0
  3 10  4  0
  3 14  4  0
  4  5  1  0
  4 18  2  0
  6 12  1  0
  6 17  4  0
  6 23  4  0
  7  9  1  0
  7 13  4  0
  7 19  4  0
  9 20  1  0
 10 19  4  0
 11 25  4  0
 13 14  4  0
 15 16  4  0
 15 17  4  0
 15 21  4  0
 16 24  1  0
 16 25  4  0
 20 24  1  0
 20 26  2  0
 21 23  4  0
 22 23  1  0
M  END
$$$$

 Created by Python create_sdf_string function

 26 28  0  0  0  0  0  0  0  0999 V2000
   12.4616    8.6700   19.4180 N   0  0  0  0  0  0  0  0  0  0  0  0
   11.8329   10.8148   18.6769 N   0  0  0  0  0  0  0  0  0  0  0  0
    6.1021    2.5564   21.0678 C   0  0  0  0  0  0  0  0  0  0  0  0
   10.9097   11.8051   18.4804 C   0  0  0  0  0  0  0  0  0  0  0  0
   11.2280   12.9135   17.5669 C   0  0  0  0  0  0  0  0  0  0  0  0
   12.3782    5.4231   20.7777 C   0  0  0  0  0  0  0  0  0  0  0  0
    7.7365    4.6508   21.6987 C   0  0  0  0  0  0  0  0  0  0  0  0
   13.0186   11.0102   18.0020 C   0  0  0  0  0  0  0  0  0  0  0  0
    8.6628    5.7088   21.8871 N   0  0  0  0  0  0  0  0  0  0  0  0
    5.6516    3.5258   21.9140 C   0  0  0  0  0  0  0  0  0  0  0  0
   11.5863    9.6815   19.4539 C   0  0  0  0  0  0  0  0  0  0  0  0
   12.9648    4.1543   20.9205 C   0  0  0  0  0  0  0  0  0  0  0  0
    8.2089    3.6265   20.8929 C   0  0  0  0  0  0  0  0  0  0  0  0
    7.3827    2.5724   20.5432 C   0  0  0  0  0  0  0  0  0  0  0  0
   11.1529    7.2750   20.8025 C   0  0  0  0  0  0  0  0  0  0  0  0
   10.2573    8.3215   20.9827 C   0  0  0  0  0  0  0  0  0  0  0  0
   11.1606    5.9378   21.2366 N   0  0  0  0  0  0  0  0  0  0  0  0
    9.8932   11.6736   19.0677 O   0  0  0  0  0  0  0  0  0  0  0  0
    6.4470    4.5850   22.2321 C   0  0  0  0  0  0  0  0  0  0  0  0
    8.4619    6.9895   22.2968 C   0  0  0  0  0  0  0  0  0  0  0  0
   12.2747    7.5102   20.0420 C   0  0  0  0  0  0  0  0  0  0  0  0
   14.2544    6.2142   19.4191 C   0  0  0  0  0  0  0  0  0  0  0  0
   13.0695    6.3705   20.0375 N   0  0  0  0  0  0  0  0  0  0  0  0
    9.1913    8.0876   21.8361 N   0  0  0  0  0  0  0  0  0  0  0  0
   10.4739    9.4813   20.2889 C   0  0  0  0  0  0  0  0  0  0  0  0
    7.5551    7.1270   23.1200 O   0  0  0  0  0  0  0  0  0  0  0  0
  1 11  4  0
  1 21  4  0
  2  4  1  0
  2  8  1  0
  2 11  1  0
  3 10  4  0
  3 14  4  0
  4  5  1  0
  4 18  2  0
  6 12  1  0
  6 17  4  0
  6 23  4  0
  7  9  1  0
  7 13  4  0
  7 19  4  0
  9 20  1  0
 10 19  4  0
 11 25  4  0
 13 14  4  0
 15 16  4  0
 15 17  4  0
 15 21  4  0
 16 24  1  0
 16 25  4  0
 20 24  1  0
 20 26  2  0
 21 23  4  0
 22 23  1  0
M  END
$$$$

 Created by Python create_sdf_string function

 26 28  0  0  0  0  0  0  0  0999 V2000
   12.4616    8.6700   19.4180 N   0  0  0  0  0  0  0  0  0  0  0  0
   11.8329   10.8148   18.6769 N   0  0  0  0  0  0  0  0  0  0  0  0
    6.1021    2.5564   21.0678 C   0  0  0  0  0  0  0  0  0  0  0  0
   10.9097   11.8051   18.4804 C   0  0  0  0  0  0  0  0  0  0  0  0
   11.2280   12.9135   17.5669 C   0  0  0  0  0  0  0  0  0  0  0  0
   12.3782    5.4231   20.7777 C   0  0  0  0  0  0  0  0  0  0  0  0
    7.7365    4.6508   21.6987 C   0  0  0  0  0  0  0  0  0  0  0  0
   13.0186   11.0102   18.0020 C   0  0  0  0  0  0  0  0  0  0  0  0
    8.6628    5.7088   21.8871 N   0  0  0  0  0  0  0  0  0  0  0  0
    5.6516    3.5258   21.9140 C   0  0  0  0  0  0  0  0  0  0  0  0
   11.5863    9.6815   19.4539 C   0  0  0  0  0  0  0  0  0  0  0  0
   12.9648    4.1543   20.9205 C   0  0  0  0  0  0  0  0  0  0  0  0
    8.2089    3.6265   20.8929 C   0  0  0  0  0  0  0  0  0  0  0  0
    7.3827    2.5724   20.5432 C   0  0  0  0  0  0  0  0  0  0  0  0
   11.1529    7.2750   20.8025 C   0  0  0  0  0  0  0  0  0  0  0  0
   10.2573    8.3215   20.9827 C   0  0  0  0  0  0  0  0  0  0  0  0
   11.1606    5.9378   21.2366 N   0  0  0  0  0  0  0  0  0  0  0  0
    9.8932   11.6736   19.0677 O   0  0  0  0  0  0  0  0  0  0  0  0
    6.4470    4.5850   22.2321 C   0  0  0  0  0  0  0  0  0  0  0  0
    8.4619    6.9895   22.2968 C   0  0  0  0  0  0  0  0  0  0  0  0
   12.2747    7.5102   20.0420 C   0  0  0  0  0  0  0  0  0  0  0  0
   14.2544    6.2142   19.4191 C   0  0  0  0  0  0  0  0  0  0  0  0
   13.0695    6.3705   20.0375 N   0  0  0  0  0  0  0  0  0  0  0  0
    9.1913    8.0876   21.8361 N   0  0  0  0  0  0  0  0  0  0  0  0
   10.4739    9.4813   20.2889 C   0  0  0  0  0  0  0  0  0  0  0  0
    7.5551    7.1270   23.1200 O   0  0  0  0  0  0  0  0  0  0  0  0
  1 11  4  0
  1 21  4  0
  2  4  1  0
  2  8  1  0
  2 11  1  0
  3 10  4  0
  3 14  4  0
  4  5  1  0
  4 18  2  0
  6 12  1  0
  6 17  4  0
  6 23  4  0
  7  9  1  0
  7 13  4  0
  7 19  4  0
  9 20  1  0
 10 19  4  0
 11 25  4  0
 13 14  4  0
 15 16  4  0
 15 17  4  0
 15 21  4  0
 16 24  1  0
 16 25  4  0
 20 24  1  0
 20 26  2  0
 21 23  4  0
 22 23  1  0
M  END
$$$$

 Created by Python create_sdf_string function

 26 28  0  0  0  0  0  0  0  0999 V2000
   12.4616    8.6700   19.4180 N   0  0  0  0  0  0  0  0  0  0  0  0
   11.8329   10.8148   18.6769 N   0  0  0  0  0  0  0  0  0  0  0  0
    6.1021    2.5564   21.0678 C   0  0  0  0  0  0  0  0  0  0  0  0
   10.9097   11.8051   18.4804 C   0  0  0  0  0  0  0  0  0  0  0  0
   11.2280   12.9135   17.5669 C   0  0  0  0  0  0  0  0  0  0  0  0
   12.3782    5.4231   20.7777 C   0  0  0  0  0  0  0  0  0  0  0  0
    7.7365    4.6508   21.6987 C   0  0  0  0  0  0  0  0  0  0  0  0
   13.0186   11.0102   18.0020 C   0  0  0  0  0  0  0  0  0  0  0  0
    8.6628    5.7088   21.8871 N   0  0  0  0  0  0  0  0  0  0  0  0
    5.6516    3.5258   21.9140 C   0  0  0  0  0  0  0  0  0  0  0  0
   11.5863    9.6815   19.4539 C   0  0  0  0  0  0  0  0  0  0  0  0
   12.9648    4.1543   20.9205 C   0  0  0  0  0  0  0  0  0  0  0  0
    8.2089    3.6265   20.8929 C   0  0  0  0  0  0  0  0  0  0  0  0
    7.3827    2.5724   20.5432 C   0  0  0  0  0  0  0  0  0  0  0  0
   11.1529    7.2750   20.8025 C   0  0  0  0  0  0  0  0  0  0  0  0
   10.2573    8.3215   20.9827 C   0  0  0  0  0  0  0  0  0  0  0  0
   11.1606    5.9378   21.2366 N   0  0  0  0  0  0  0  0  0  0  0  0
    9.8932   11.6736   19.0677 O   0  0  0  0  0  0  0  0  0  0  0  0
    6.4470    4.5850   22.2321 C   0  0  0  0  0  0  0  0  0  0  0  0
    8.4619    6.9895   22.2968 C   0  0  0  0  0  0  0  0  0  0  0  0
   12.2747    7.5102   20.0420 C   0  0  0  0  0  0  0  0  0  0  0  0
   14.2544    6.2142   19.4191 C   0  0  0  0  0  0  0  0  0  0  0  0
   13.0695    6.3705   20.0375 N   0  0  0  0  0  0  0  0  0  0  0  0
    9.1913    8.0876   21.8361 N   0  0  0  0  0  0  0  0  0  0  0  0
   10.4739    9.4813   20.2889 C   0  0  0  0  0  0  0  0  0  0  0  0
    7.5551    7.1270   23.1200 O   0  0  0  0  0  0  0  0  0  0  0  0
  1 11  4  0
  1 21  4  0
  2  4  1  0
  2  8  1  0
  2 11  1  0
  3 10  4  0
  3 14  4  0
  4  5  1  0
  4 18  2  0
  6 12  1  0
  6 17  4  0
  6 23  4  0
  7  9  1  0
  7 13  4  0
  7 19  4  0
  9 20  1  0
 10 19  4  0
 11 25  4  0
 13 14  4  0
 15 16  4  0
 15 17  4  0
 15 21  4  0
 16 24  1  0
 16 25  4  0
 20 24  1  0
 20 26  2  0
 21 23  4  0
 22 23  1  0
M  END
$$$$

 Created by Python create_sdf_string function

 26 28  0  0  0  0  0  0  0  0999 V2000
   12.4616    8.6700   19.4180 N   0  0  0  0  0  0  0  0  0  0  0  0
   11.8329   10.8148   18.6769 N   0  0  0  0  0  0  0  0  0  0  0  0
    6.1021    2.5564   21.0678 C   0  0  0  0  0  0  0  0  0  0  0  0
   10.9097   11.8051   18.4804 C   0  0  0  0  0  0  0  0  0  0  0  0
   11.2280   12.9135   17.5669 C   0  0  0  0  0  0  0  0  0  0  0  0
   12.3782    5.4231   20.7777 C   0  0  0  0  0  0  0  0  0  0  0  0
    7.7365    4.6508   21.6987 C   0  0  0  0  0  0  0  0  0  0  0  0
   13.0186   11.0102   18.0020 C   0  0  0  0  0  0  0  0  0  0  0  0
    8.6628    5.7088   21.8871 N   0  0  0  0  0  0  0  0  0  0  0  0
    5.6516    3.5258   21.9140 C   0  0  0  0  0  0  0  0  0  0  0  0
   11.5863    9.6815   19.4539 C   0  0  0  0  0  0  0  0  0  0  0  0
   12.9648    4.1543   20.9205 C   0  0  0  0  0  0  0  0  0  0  0  0
    8.2089    3.6265   20.8929 C   0  0  0  0  0  0  0  0  0  0  0  0
    7.3827    2.5724   20.5432 C   0  0  0  0  0  0  0  0  0  0  0  0
   11.1529    7.2750   20.8025 C   0  0  0  0  0  0  0  0  0  0  0  0
   10.2573    8.3215   20.9827 C   0  0  0  0  0  0  0  0  0  0  0  0
   11.1606    5.9378   21.2366 N   0  0  0  0  0  0  0  0  0  0  0  0
    9.8932   11.6736   19.0677 O   0  0  0  0  0  0  0  0  0  0  0  0
    6.4470    4.5850   22.2321 C   0  0  0  0  0  0  0  0  0  0  0  0
    8.4619    6.9895   22.2968 C   0  0  0  0  0  0  0  0  0  0  0  0
   12.2747    7.5102   20.0420 C   0  0  0  0  0  0  0  0  0  0  0  0
   14.2544    6.2142   19.4191 C   0  0  0  0  0  0  0  0  0  0  0  0
   13.0695    6.3705   20.0375 N   0  0  0  0  0  0  0  0  0  0  0  0
    9.1913    8.0876   21.8361 N   0  0  0  0  0  0  0  0  0  0  0  0
   10.4739    9.4813   20.2889 C   0  0  0  0  0  0  0  0  0  0  0  0
    7.5551    7.1270   23.1200 O   0  0  0  0  0  0  0  0  0  0  0  0
  1 11  4  0
  1 21  4  0
  2  4  1  0
  2  8  1  0
  2 11  1  0
  3 10  4  0
  3 14  4  0
  4  5  1  0
  4 18  2  0
  6 12  1  0
  6 17  4  0
  6 23  4  0
  7  9  1  0
  7 13  4  0
  7 19  4  0
  9 20  1  0
 10 19  4  0
 11 25  4  0
 13 14  4  0
 15 16  4  0
 15 17  4  0
 15 21  4  0
 16 24  1  0
 16 25  4  0
 20 24  1  0
 20 26  2  0
 21 23  4  0
 22 23  1  0
M  END
$$$$

 Created by Python create_sdf_string function

 26 28  0  0  0  0  0  0  0  0999 V2000
   12.4616    8.6700   19.4180 N   0  0  0  0  0  0  0  0  0  0  0  0
   11.8329   10.8148   18.6769 N   0  0  0  0  0  0  0  0  0  0  0  0
    6.1021    2.5564   21.0678 C   0  0  0  0  0  0  0  0  0  0  0  0
   10.9097   11.8051   18.4804 C   0  0  0  0  0  0  0  0  0  0  0  0
   11.2280   12.9135   17.5669 C   0  0  0  0  0  0  0  0  0  0  0  0
   12.3782    5.4231   20.7777 C   0  0  0  0  0  0  0  0  0  0  0  0
    7.7365    4.6508   21.6987 C   0  0  0  0  0  0  0  0  0  0  0  0
   13.0186   11.0102   18.0020 C   0  0  0  0  0  0  0  0  0  0  0  0
    8.6628    5.7088   21.8871 N   0  0  0  0  0  0  0  0  0  0  0  0
    5.6516    3.5258   21.9140 C   0  0  0  0  0  0  0  0  0  0  0  0
   11.5863    9.6815   19.4539 C   0  0  0  0  0  0  0  0  0  0  0  0
   12.9648    4.1543   20.9205 C   0  0  0  0  0  0  0  0  0  0  0  0
    8.2089    3.6265   20.8929 C   0  0  0  0  0  0  0  0  0  0  0  0
    7.3827    2.5724   20.5432 C   0  0  0  0  0  0  0  0  0  0  0  0
   11.1529    7.2750   20.8025 C   0  0  0  0  0  0  0  0  0  0  0  0
   10.2573    8.3215   20.9827 C   0  0  0  0  0  0  0  0  0  0  0  0
   11.1606    5.9378   21.2366 N   0  0  0  0  0  0  0  0  0  0  0  0
    9.8932   11.6736   19.0677 O   0  0  0  0  0  0  0  0  0  0  0  0
    6.4470    4.5850   22.2321 C   0  0  0  0  0  0  0  0  0  0  0  0
    8.4619    6.9895   22.2968 C   0  0  0  0  0  0  0  0  0  0  0  0
   12.2747    7.5102   20.0420 C   0  0  0  0  0  0  0  0  0  0  0  0
   14.2544    6.2142   19.4191 C   0  0  0  0  0  0  0  0  0  0  0  0
   13.0695    6.3705   20.0375 N   0  0  0  0  0  0  0  0  0  0  0  0
    9.1913    8.0876   21.8361 N   0  0  0  0  0  0  0  0  0  0  0  0
   10.4739    9.4813   20.2889 C   0  0  0  0  0  0  0  0  0  0  0  0
    7.5551    7.1270   23.1200 O   0  0  0  0  0  0  0  0  0  0  0  0
  1 11  4  0
  1 21  4  0
  2  4  1  0
  2  8  1  0
  2 11  1  0
  3 10  4  0
  3 14  4  0
  4  5  1  0
  4 18  2  0
  6 12  1  0
  6 17  4  0
  6 23  4  0
  7  9  1  0
  7 13  4  0
  7 19  4  0
  9 20  1  0
 10 19  4  0
 11 25  4  0
 13 14  4  0
 15 16  4  0
 15 17  4  0
 15 21  4  0
 16 24  1  0
 16 25  4  0
 20 24  1  0
 20 26  2  0
 21 23  4  0
 22 23  1  0
M  END
$$$$

 Created by Python create_sdf_string function

 26 28  0  0  0  0  0  0  0  0999 V2000
   12.4616    8.6700   19.4180 N   0  0  0  0  0  0  0  0  0  0  0  0
   11.8329   10.8148   18.6769 N   0  0  0  0  0  0  0  0  0  0  0  0
    6.1021    2.5564   21.0678 C   0  0  0  0  0  0  0  0  0  0  0  0
   10.9097   11.8051   18.4804 C   0  0  0  0  0  0  0  0  0  0  0  0
   11.2280   12.9135   17.5669 C   0  0  0  0  0  0  0  0  0  0  0  0
   12.3782    5.4231   20.7777 C   0  0  0  0  0  0  0  0  0  0  0  0
    7.7365    4.6508   21.6987 C   0  0  0  0  0  0  0  0  0  0  0  0
   13.0186   11.0102   18.0020 C   0  0  0  0  0  0  0  0  0  0  0  0
    8.6628    5.7088   21.8871 N   0  0  0  0  0  0  0  0  0  0  0  0
    5.6516    3.5258   21.9140 C   0  0  0  0  0  0  0  0  0  0  0  0
   11.5863    9.6815   19.4539 C   0  0  0  0  0  0  0  0  0  0  0  0
   12.9648    4.1543   20.9205 C   0  0  0  0  0  0  0  0  0  0  0  0
    8.2089    3.6265   20.8929 C   0  0  0  0  0  0  0  0  0  0  0  0
    7.3827    2.5724   20.5432 C   0  0  0  0  0  0  0  0  0  0  0  0
   11.1529    7.2750   20.8025 C   0  0  0  0  0  0  0  0  0  0  0  0
   10.2573    8.3215   20.9827 C   0  0  0  0  0  0  0  0  0  0  0  0
   11.1606    5.9378   21.2366 N   0  0  0  0  0  0  0  0  0  0  0  0
    9.8932   11.6736   19.0677 O   0  0  0  0  0  0  0  0  0  0  0  0
    6.4470    4.5850   22.2321 C   0  0  0  0  0  0  0  0  0  0  0  0
    8.4619    6.9895   22.2968 C   0  0  0  0  0  0  0  0  0  0  0  0
   12.2747    7.5102   20.0420 C   0  0  0  0  0  0  0  0  0  0  0  0
   14.2544    6.2142   19.4191 C   0  0  0  0  0  0  0  0  0  0  0  0
   13.0695    6.3705   20.0375 N   0  0  0  0  0  0  0  0  0  0  0  0
    9.1913    8.0876   21.8361 N   0  0  0  0  0  0  0  0  0  0  0  0
   10.4739    9.4813   20.2889 C   0  0  0  0  0  0  0  0  0  0  0  0
    7.5551    7.1270   23.1200 O   0  0  0  0  0  0  0  0  0  0  0  0
  1 11  4  0
  1 21  4  0
  2  4  1  0
  2  8  1  0
  2 11  1  0
  3 10  4  0
  3 14  4  0
  4  5  1  0
  4 18  2  0
  6 12  1  0
  6 17  4  0
  6 23  4  0
  7  9  1  0
  7 13  4  0
  7 19  4  0
  9 20  1  0
 10 19  4  0
 11 25  4  0
 13 14  4  0
 15 16  4  0
 15 17  4  0
 15 21  4  0
 16 24  1  0
 16 25  4  0
 20 24  1  0
 20 26  2  0
 21 23  4  0
 22 23  1  0
M  END
$$$$

 Created by Python create_sdf_string function

 26 28  0  0  0  0  0  0  0  0999 V2000
   12.4616    8.6700   19.4180 N   0  0  0  0  0  0  0  0  0  0  0  0
   11.8329   10.8148   18.6769 N   0  0  0  0  0  0  0  0  0  0  0  0
    6.1021    2.5564   21.0678 C   0  0  0  0  0  0  0  0  0  0  0  0
   10.9097   11.8051   18.4804 C   0  0  0  0  0  0  0  0  0  0  0  0
   11.2280   12.9135   17.5669 C   0  0  0  0  0  0  0  0  0  0  0  0
   12.3782    5.4231   20.7777 C   0  0  0  0  0  0  0  0  0  0  0  0
    7.7365    4.6508   21.6987 C   0  0  0  0  0  0  0  0  0  0  0  0
   13.0186   11.0102   18.0020 C   0  0  0  0  0  0  0  0  0  0  0  0
    8.6628    5.7088   21.8871 N   0  0  0  0  0  0  0  0  0  0  0  0
    5.6516    3.5258   21.9140 C   0  0  0  0  0  0  0  0  0  0  0  0
   11.5863    9.6815   19.4539 C   0  0  0  0  0  0  0  0  0  0  0  0
   12.9648    4.1543   20.9205 C   0  0  0  0  0  0  0  0  0  0  0  0
    8.2089    3.6265   20.8929 C   0  0  0  0  0  0  0  0  0  0  0  0
    7.3827    2.5724   20.5432 C   0  0  0  0  0  0  0  0  0  0  0  0
   11.1529    7.2750   20.8025 C   0  0  0  0  0  0  0  0  0  0  0  0
   10.2573    8.3215   20.9827 C   0  0  0  0  0  0  0  0  0  0  0  0
   11.1606    5.9378   21.2366 N   0  0  0  0  0  0  0  0  0  0  0  0
    9.8932   11.6736   19.0677 O   0  0  0  0  0  0  0  0  0  0  0  0
    6.4470    4.5850   22.2321 C   0  0  0  0  0  0  0  0  0  0  0  0
    8.4619    6.9895   22.2968 C   0  0  0  0  0  0  0  0  0  0  0  0
   12.2747    7.5102   20.0420 C   0  0  0  0  0  0  0  0  0  0  0  0
   14.2544    6.2142   19.4191 C   0  0  0  0  0  0  0  0  0  0  0  0
   13.0695    6.3705   20.0375 N   0  0  0  0  0  0  0  0  0  0  0  0
    9.1913    8.0876   21.8361 N   0  0  0  0  0  0  0  0  0  0  0  0
   10.4739    9.4813   20.2889 C   0  0  0  0  0  0  0  0  0  0  0  0
    7.5551    7.1270   23.1200 O   0  0  0  0  0  0  0  0  0  0  0  0
  1 11  4  0
  1 21  4  0
  2  4  1  0
  2  8  1  0
  2 11  1  0
  3 10  4  0
  3 14  4  0
  4  5  1  0
  4 18  2  0
  6 12  1  0
  6 17  4  0
  6 23  4  0
  7  9  1  0
  7 13  4  0
  7 19  4  0
  9 20  1  0
 10 19  4  0
 11 25  4  0
 13 14  4  0
 15 16  4  0
 15 17  4  0
 15 21  4  0
 16 24  1  0
 16 25  4  0
 20 24  1  0
 20 26  2  0
 21 23  4  0
 22 23  1  0
M  END
$$$$

 Created by Python create_sdf_string function

 26 28  0  0  0  0  0  0  0  0999 V2000
   12.4616    8.6700   19.4180 N   0  0  0  0  0  0  0  0  0  0  0  0
   11.8329   10.8148   18.6769 N   0  0  0  0  0  0  0  0  0  0  0  0
    6.1021    2.5564   21.0678 C   0  0  0  0  0  0  0  0  0  0  0  0
   10.9097   11.8051   18.4804 C   0  0  0  0  0  0  0  0  0  0  0  0
   11.2280   12.9135   17.5669 C   0  0  0  0  0  0  0  0  0  0  0  0
   12.3782    5.4231   20.7777 C   0  0  0  0  0  0  0  0  0  0  0  0
    7.7365    4.6508   21.6987 C   0  0  0  0  0  0  0  0  0  0  0  0
   13.0186   11.0102   18.0020 C   0  0  0  0  0  0  0  0  0  0  0  0
    8.6628    5.7088   21.8871 N   0  0  0  0  0  0  0  0  0  0  0  0
    5.6516    3.5258   21.9140 C   0  0  0  0  0  0  0  0  0  0  0  0
   11.5863    9.6815   19.4539 C   0  0  0  0  0  0  0  0  0  0  0  0
   12.9648    4.1543   20.9205 C   0  0  0  0  0  0  0  0  0  0  0  0
    8.2089    3.6265   20.8929 C   0  0  0  0  0  0  0  0  0  0  0  0
    7.3827    2.5724   20.5432 C   0  0  0  0  0  0  0  0  0  0  0  0
   11.1529    7.2750   20.8025 C   0  0  0  0  0  0  0  0  0  0  0  0
   10.2573    8.3215   20.9827 C   0  0  0  0  0  0  0  0  0  0  0  0
   11.1606    5.9378   21.2366 N   0  0  0  0  0  0  0  0  0  0  0  0
    9.8932   11.6736   19.0677 O   0  0  0  0  0  0  0  0  0  0  0  0
    6.4470    4.5850   22.2321 C   0  0  0  0  0  0  0  0  0  0  0  0
    8.4619    6.9895   22.2968 C   0  0  0  0  0  0  0  0  0  0  0  0
   12.2747    7.5102   20.0420 C   0  0  0  0  0  0  0  0  0  0  0  0
   14.2544    6.2142   19.4191 C   0  0  0  0  0  0  0  0  0  0  0  0
   13.0695    6.3705   20.0375 N   0  0  0  0  0  0  0  0  0  0  0  0
    9.1913    8.0876   21.8361 N   0  0  0  0  0  0  0  0  0  0  0  0
   10.4739    9.4813   20.2889 C   0  0  0  0  0  0  0  0  0  0  0  0
    7.5551    7.1270   23.1200 O   0  0  0  0  0  0  0  0  0  0  0  0
  1 11  4  0
  1 21  4  0
  2  4  1  0
  2  8  1  0
  2 11  1  0
  3 10  4  0
  3 14  4  0
  4  5  1  0
  4 18  2  0
  6 12  1  0
  6 17  4  0
  6 23  4  0
  7  9  1  0
  7 13  4  0
  7 19  4  0
  9 20  1  0
 10 19  4  0
 11 25  4  0
 13 14  4  0
 15 16  4  0
 15 17  4  0
 15 21  4  0
 16 24  1  0
 16 25  4  0
 20 24  1  0
 20 26  2  0
 21 23  4  0
 22 23  1  0
M  END
$$$$

 Created by Python create_sdf_string function

 26 28  0  0  0  0  0  0  0  0999 V2000
   12.4616    8.6700   19.4180 N   0  0  0  0  0  0  0  0  0  0  0  0
   11.8329   10.8148   18.6769 N   0  0  0  0  0  0  0  0  0  0  0  0
    6.1021    2.5564   21.0678 C   0  0  0  0  0  0  0  0  0  0  0  0
   10.9097   11.8051   18.4804 C   0  0  0  0  0  0  0  0  0  0  0  0
   11.2280   12.9135   17.5669 C   0  0  0  0  0  0  0  0  0  0  0  0
   12.3782    5.4231   20.7777 C   0  0  0  0  0  0  0  0  0  0  0  0
    7.7365    4.6508   21.6987 C   0  0  0  0  0  0  0  0  0  0  0  0
   13.0186   11.0102   18.0020 C   0  0  0  0  0  0  0  0  0  0  0  0
    8.6628    5.7088   21.8871 N   0  0  0  0  0  0  0  0  0  0  0  0
    5.6516    3.5258   21.9140 C   0  0  0  0  0  0  0  0  0  0  0  0
   11.5863    9.6815   19.4539 C   0  0  0  0  0  0  0  0  0  0  0  0
   12.9648    4.1543   20.9205 C   0  0  0  0  0  0  0  0  0  0  0  0
    8.2089    3.6265   20.8929 C   0  0  0  0  0  0  0  0  0  0  0  0
    7.3827    2.5724   20.5432 C   0  0  0  0  0  0  0  0  0  0  0  0
   11.1529    7.2750   20.8025 C   0  0  0  0  0  0  0  0  0  0  0  0
   10.2573    8.3215   20.9827 C   0  0  0  0  0  0  0  0  0  0  0  0
   11.1606    5.9378   21.2366 N   0  0  0  0  0  0  0  0  0  0  0  0
    9.8932   11.6736   19.0677 O   0  0  0  0  0  0  0  0  0  0  0  0
    6.4470    4.5850   22.2321 C   0  0  0  0  0  0  0  0  0  0  0  0
    8.4619    6.9895   22.2968 C   0  0  0  0  0  0  0  0  0  0  0  0
   12.2747    7.5102   20.0420 C   0  0  0  0  0  0  0  0  0  0  0  0
   14.2544    6.2142   19.4191 C   0  0  0  0  0  0  0  0  0  0  0  0
   13.0695    6.3705   20.0375 N   0  0  0  0  0  0  0  0  0  0  0  0
    9.1913    8.0876   21.8361 N   0  0  0  0  0  0  0  0  0  0  0  0
   10.4739    9.4813   20.2889 C   0  0  0  0  0  0  0  0  0  0  0  0
    7.5551    7.1270   23.1200 O   0  0  0  0  0  0  0  0  0  0  0  0
  1 11  4  0
  1 21  4  0
  2  4  1  0
  2  8  1  0
  2 11  1  0
  3 10  4  0
  3 14  4  0
  4  5  1  0
  4 18  2  0
  6 12  1  0
  6 17  4  0
  6 23  4  0
  7  9  1  0
  7 13  4  0
  7 19  4  0
  9 20  1  0
 10 19  4  0
 11 25  4  0
 13 14  4  0
 15 16  4  0
 15 17  4  0
 15 21  4  0
 16 24  1  0
 16 25  4  0
 20 24  1  0
 20 26  2  0
 21 23  4  0
 22 23  1  0
M  END
$$$$

 Created by Python create_sdf_string function

 26 28  0  0  0  0  0  0  0  0999 V2000
   12.4616    8.6700   19.4180 N   0  0  0  0  0  0  0  0  0  0  0  0
   11.8329   10.8148   18.6769 N   0  0  0  0  0  0  0  0  0  0  0  0
    6.1021    2.5564   21.0678 C   0  0  0  0  0  0  0  0  0  0  0  0
   10.9097   11.8051   18.4804 C   0  0  0  0  0  0  0  0  0  0  0  0
   11.2280   12.9135   17.5669 C   0  0  0  0  0  0  0  0  0  0  0  0
   12.3782    5.4231   20.7777 C   0  0  0  0  0  0  0  0  0  0  0  0
    7.7365    4.6508   21.6987 C   0  0  0  0  0  0  0  0  0  0  0  0
   13.0186   11.0102   18.0020 C   0  0  0  0  0  0  0  0  0  0  0  0
    8.6628    5.7088   21.8871 N   0  0  0  0  0  0  0  0  0  0  0  0
    5.6516    3.5258   21.9140 C   0  0  0  0  0  0  0  0  0  0  0  0
   11.5863    9.6815   19.4539 C   0  0  0  0  0  0  0  0  0  0  0  0
   12.9648    4.1543   20.9205 C   0  0  0  0  0  0  0  0  0  0  0  0
    8.2089    3.6265   20.8929 C   0  0  0  0  0  0  0  0  0  0  0  0
    7.3827    2.5724   20.5432 C   0  0  0  0  0  0  0  0  0  0  0  0
   11.1529    7.2750   20.8025 C   0  0  0  0  0  0  0  0  0  0  0  0
   10.2573    8.3215   20.9827 C   0  0  0  0  0  0  0  0  0  0  0  0
   11.1606    5.9378   21.2366 N   0  0  0  0  0  0  0  0  0  0  0  0
    9.8932   11.6736   19.0677 O   0  0  0  0  0  0  0  0  0  0  0  0
    6.4470    4.5850   22.2321 C   0  0  0  0  0  0  0  0  0  0  0  0
    8.4619    6.9895   22.2968 C   0  0  0  0  0  0  0  0  0  0  0  0
   12.2747    7.5102   20.0420 C   0  0  0  0  0  0  0  0  0  0  0  0
   14.2544    6.2142   19.4191 C   0  0  0  0  0  0  0  0  0  0  0  0
   13.0695    6.3705   20.0375 N   0  0  0  0  0  0  0  0  0  0  0  0
    9.1913    8.0876   21.8361 N   0  0  0  0  0  0  0  0  0  0  0  0
   10.4739    9.4813   20.2889 C   0  0  0  0  0  0  0  0  0  0  0  0
    7.5551    7.1270   23.1200 O   0  0  0  0  0  0  0  0  0  0  0  0
  1 11  4  0
  1 21  4  0
  2  4  1  0
  2  8  1  0
  2 11  1  0
  3 10  4  0
  3 14  4  0
  4  5  1  0
  4 18  2  0
  6 12  1  0
  6 17  4  0
  6 23  4  0
  7  9  1  0
  7 13  4  0
  7 19  4  0
  9 20  1  0
 10 19  4  0
 11 25  4  0
 13 14  4  0
 15 16  4  0
 15 17  4  0
 15 21  4  0
 16 24  1  0
 16 25  4  0
 20 24  1  0
 20 26  2  0
 21 23  4  0
 22 23  1  0
M  END
$$$$

 Created by Python create_sdf_string function

 26 28  0  0  0  0  0  0  0  0999 V2000
   12.4616    8.6700   19.4180 N   0  0  0  0  0  0  0  0  0  0  0  0
   11.8329   10.8148   18.6769 N   0  0  0  0  0  0  0  0  0  0  0  0
    6.1021    2.5564   21.0678 C   0  0  0  0  0  0  0  0  0  0  0  0
   10.9097   11.8051   18.4804 C   0  0  0  0  0  0  0  0  0  0  0  0
   11.2280   12.9135   17.5669 C   0  0  0  0  0  0  0  0  0  0  0  0
   12.3782    5.4231   20.7777 C   0  0  0  0  0  0  0  0  0  0  0  0
    7.7365    4.6508   21.6987 C   0  0  0  0  0  0  0  0  0  0  0  0
   13.0186   11.0102   18.0020 C   0  0  0  0  0  0  0  0  0  0  0  0
    8.6628    5.7088   21.8871 N   0  0  0  0  0  0  0  0  0  0  0  0
    5.6516    3.5258   21.9140 C   0  0  0  0  0  0  0  0  0  0  0  0
   11.5863    9.6815   19.4539 C   0  0  0  0  0  0  0  0  0  0  0  0
   12.9648    4.1543   20.9205 C   0  0  0  0  0  0  0  0  0  0  0  0
    8.2089    3.6265   20.8929 C   0  0  0  0  0  0  0  0  0  0  0  0
    7.3827    2.5724   20.5432 C   0  0  0  0  0  0  0  0  0  0  0  0
   11.1529    7.2750   20.8025 C   0  0  0  0  0  0  0  0  0  0  0  0
   10.2573    8.3215   20.9827 C   0  0  0  0  0  0  0  0  0  0  0  0
   11.1606    5.9378   21.2366 N   0  0  0  0  0  0  0  0  0  0  0  0
    9.8932   11.6736   19.0677 O   0  0  0  0  0  0  0  0  0  0  0  0
    6.4470    4.5850   22.2321 C   0  0  0  0  0  0  0  0  0  0  0  0
    8.4619    6.9895   22.2968 C   0  0  0  0  0  0  0  0  0  0  0  0
   12.2747    7.5102   20.0420 C   0  0  0  0  0  0  0  0  0  0  0  0
   14.2544    6.2142   19.4191 C   0  0  0  0  0  0  0  0  0  0  0  0
   13.0695    6.3705   20.0375 N   0  0  0  0  0  0  0  0  0  0  0  0
    9.1913    8.0876   21.8361 N   0  0  0  0  0  0  0  0  0  0  0  0
   10.4739    9.4813   20.2889 C   0  0  0  0  0  0  0  0  0  0  0  0
    7.5551    7.1270   23.1200 O   0  0  0  0  0  0  0  0  0  0  0  0
  1 11  4  0
  1 21  4  0
  2  4  1  0
  2  8  1  0
  2 11  1  0
  3 10  4  0
  3 14  4  0
  4  5  1  0
  4 18  2  0
  6 12  1  0
  6 17  4  0
  6 23  4  0
  7  9  1  0
  7 13  4  0
  7 19  4  0
  9 20  1  0
 10 19  4  0
 11 25  4  0
 13 14  4  0
 15 16  4  0
 15 17  4  0
 15 21  4  0
 16 24  1  0
 16 25  4  0
 20 24  1  0
 20 26  2  0
 21 23  4  0
 22 23  1  0
M  END
$$$$

 Created by Python create_sdf_string function

 26 28  0  0  0  0  0  0  0  0999 V2000
   12.4616    8.6700   19.4180 N   0  0  0  0  0  0  0  0  0  0  0  0
   11.8329   10.8148   18.6769 N   0  0  0  0  0  0  0  0  0  0  0  0
    6.1021    2.5564   21.0678 C   0  0  0  0  0  0  0  0  0  0  0  0
   10.9097   11.8051   18.4804 C   0  0  0  0  0  0  0  0  0  0  0  0
   11.2280   12.9135   17.5669 C   0  0  0  0  0  0  0  0  0  0  0  0
   12.3782    5.4231   20.7777 C   0  0  0  0  0  0  0  0  0  0  0  0
    7.7365    4.6508   21.6987 C   0  0  0  0  0  0  0  0  0  0  0  0
   13.0186   11.0102   18.0020 C   0  0  0  0  0  0  0  0  0  0  0  0
    8.6628    5.7088   21.8871 N   0  0  0  0  0  0  0  0  0  0  0  0
    5.6516    3.5258   21.9140 C   0  0  0  0  0  0  0  0  0  0  0  0
   11.5863    9.6815   19.4539 C   0  0  0  0  0  0  0  0  0  0  0  0
   12.9648    4.1543   20.9205 C   0  0  0  0  0  0  0  0  0  0  0  0
    8.2089    3.6265   20.8929 C   0  0  0  0  0  0  0  0  0  0  0  0
    7.3827    2.5724   20.5432 C   0  0  0  0  0  0  0  0  0  0  0  0
   11.1529    7.2750   20.8025 C   0  0  0  0  0  0  0  0  0  0  0  0
   10.2573    8.3215   20.9827 C   0  0  0  0  0  0  0  0  0  0  0  0
   11.1606    5.9378   21.2366 N   0  0  0  0  0  0  0  0  0  0  0  0
    9.8932   11.6736   19.0677 O   0  0  0  0  0  0  0  0  0  0  0  0
    6.4470    4.5850   22.2321 C   0  0  0  0  0  0  0  0  0  0  0  0
    8.4619    6.9895   22.2968 C   0  0  0  0  0  0  0  0  0  0  0  0
   12.2747    7.5102   20.0420 C   0  0  0  0  0  0  0  0  0  0  0  0
   14.2544    6.2142   19.4191 C   0  0  0  0  0  0  0  0  0  0  0  0
   13.0695    6.3705   20.0375 N   0  0  0  0  0  0  0  0  0  0  0  0
    9.1913    8.0876   21.8361 N   0  0  0  0  0  0  0  0  0  0  0  0
   10.4739    9.4813   20.2889 C   0  0  0  0  0  0  0  0  0  0  0  0
    7.5551    7.1270   23.1200 O   0  0  0  0  0  0  0  0  0  0  0  0
  1 11  4  0
  1 21  4  0
  2  4  1  0
  2  8  1  0
  2 11  1  0
  3 10  4  0
  3 14  4  0
  4  5  1  0
  4 18  2  0
  6 12  1  0
  6 17  4  0
  6 23  4  0
  7  9  1  0
  7 13  4  0
  7 19  4  0
  9 20  1  0
 10 19  4  0
 11 25  4  0
 13 14  4  0
 15 16  4  0
 15 17  4  0
 15 21  4  0
 16 24  1  0
 16 25  4  0
 20 24  1  0
 20 26  2  0
 21 23  4  0
 22 23  1  0
M  END
$$$$

 Created by Python create_sdf_string function

 26 28  0  0  0  0  0  0  0  0999 V2000
   12.4616    8.6700   19.4180 N   0  0  0  0  0  0  0  0  0  0  0  0
   11.8329   10.8148   18.6769 N   0  0  0  0  0  0  0  0  0  0  0  0
    6.1021    2.5564   21.0678 C   0  0  0  0  0  0  0  0  0  0  0  0
   10.9097   11.8051   18.4804 C   0  0  0  0  0  0  0  0  0  0  0  0
   11.2280   12.9135   17.5669 C   0  0  0  0  0  0  0  0  0  0  0  0
   12.3782    5.4231   20.7777 C   0  0  0  0  0  0  0  0  0  0  0  0
    7.7365    4.6508   21.6987 C   0  0  0  0  0  0  0  0  0  0  0  0
   13.0186   11.0102   18.0020 C   0  0  0  0  0  0  0  0  0  0  0  0
    8.6628    5.7088   21.8871 N   0  0  0  0  0  0  0  0  0  0  0  0
    5.6516    3.5258   21.9140 C   0  0  0  0  0  0  0  0  0  0  0  0
   11.5863    9.6815   19.4539 C   0  0  0  0  0  0  0  0  0  0  0  0
   12.9648    4.1543   20.9205 C   0  0  0  0  0  0  0  0  0  0  0  0
    8.2089    3.6265   20.8929 C   0  0  0  0  0  0  0  0  0  0  0  0
    7.3827    2.5724   20.5432 C   0  0  0  0  0  0  0  0  0  0  0  0
   11.1529    7.2750   20.8025 C   0  0  0  0  0  0  0  0  0  0  0  0
   10.2573    8.3215   20.9827 C   0  0  0  0  0  0  0  0  0  0  0  0
   11.1606    5.9378   21.2366 N   0  0  0  0  0  0  0  0  0  0  0  0
    9.8932   11.6736   19.0677 O   0  0  0  0  0  0  0  0  0  0  0  0
    6.4470    4.5850   22.2321 C   0  0  0  0  0  0  0  0  0  0  0  0
    8.4619    6.9895   22.2968 C   0  0  0  0  0  0  0  0  0  0  0  0
   12.2747    7.5102   20.0420 C   0  0  0  0  0  0  0  0  0  0  0  0
   14.2544    6.2142   19.4191 C   0  0  0  0  0  0  0  0  0  0  0  0
   13.0695    6.3705   20.0375 N   0  0  0  0  0  0  0  0  0  0  0  0
    9.1913    8.0876   21.8361 N   0  0  0  0  0  0  0  0  0  0  0  0
   10.4739    9.4813   20.2889 C   0  0  0  0  0  0  0  0  0  0  0  0
    7.5551    7.1270   23.1200 O   0  0  0  0  0  0  0  0  0  0  0  0
  1 11  4  0
  1 21  4  0
  2  4  1  0
  2  8  1  0
  2 11  1  0
  3 10  4  0
  3 14  4  0
  4  5  1  0
  4 18  2  0
  6 12  1  0
  6 17  4  0
  6 23  4  0
  7  9  1  0
  7 13  4  0
  7 19  4  0
  9 20  1  0
 10 19  4  0
 11 25  4  0
 13 14  4  0
 15 16  4  0
 15 17  4  0
 15 21  4  0
 16 24  1  0
 16 25  4  0
 20 24  1  0
 20 26  2  0
 21 23  4  0
 22 23  1  0
M  END
$$$$

 Created by Python create_sdf_string function

 26 28  0  0  0  0  0  0  0  0999 V2000
   12.4616    8.6700   19.4180 N   0  0  0  0  0  0  0  0  0  0  0  0
   11.8329   10.8148   18.6769 N   0  0  0  0  0  0  0  0  0  0  0  0
    6.1021    2.5564   21.0678 C   0  0  0  0  0  0  0  0  0  0  0  0
   10.9097   11.8051   18.4804 C   0  0  0  0  0  0  0  0  0  0  0  0
   11.2280   12.9135   17.5669 C   0  0  0  0  0  0  0  0  0  0  0  0
   12.3782    5.4231   20.7777 C   0  0  0  0  0  0  0  0  0  0  0  0
    7.7365    4.6508   21.6987 C   0  0  0  0  0  0  0  0  0  0  0  0
   13.0186   11.0102   18.0020 C   0  0  0  0  0  0  0  0  0  0  0  0
    8.6628    5.7088   21.8871 N   0  0  0  0  0  0  0  0  0  0  0  0
    5.6516    3.5258   21.9140 C   0  0  0  0  0  0  0  0  0  0  0  0
   11.5863    9.6815   19.4539 C   0  0  0  0  0  0  0  0  0  0  0  0
   12.9648    4.1543   20.9205 C   0  0  0  0  0  0  0  0  0  0  0  0
    8.2089    3.6265   20.8929 C   0  0  0  0  0  0  0  0  0  0  0  0
    7.3827    2.5724   20.5432 C   0  0  0  0  0  0  0  0  0  0  0  0
   11.1529    7.2750   20.8025 C   0  0  0  0  0  0  0  0  0  0  0  0
   10.2573    8.3215   20.9827 C   0  0  0  0  0  0  0  0  0  0  0  0
   11.1606    5.9378   21.2366 N   0  0  0  0  0  0  0  0  0  0  0  0
    9.8932   11.6736   19.0677 O   0  0  0  0  0  0  0  0  0  0  0  0
    6.4470    4.5850   22.2321 C   0  0  0  0  0  0  0  0  0  0  0  0
    8.4619    6.9895   22.2968 C   0  0  0  0  0  0  0  0  0  0  0  0
   12.2747    7.5102   20.0420 C   0  0  0  0  0  0  0  0  0  0  0  0
   14.2544    6.2142   19.4191 C   0  0  0  0  0  0  0  0  0  0  0  0
   13.0695    6.3705   20.0375 N   0  0  0  0  0  0  0  0  0  0  0  0
    9.1913    8.0876   21.8361 N   0  0  0  0  0  0  0  0  0  0  0  0
   10.4739    9.4813   20.2889 C   0  0  0  0  0  0  0  0  0  0  0  0
    7.5551    7.1270   23.1200 O   0  0  0  0  0  0  0  0  0  0  0  0
  1 11  4  0
  1 21  4  0
  2  4  1  0
  2  8  1  0
  2 11  1  0
  3 10  4  0
  3 14  4  0
  4  5  1  0
  4 18  2  0
  6 12  1  0
  6 17  4  0
  6 23  4  0
  7  9  1  0
  7 13  4  0
  7 19  4  0
  9 20  1  0
 10 19  4  0
 11 25  4  0
 13 14  4  0
 15 16  4  0
 15 17  4  0
 15 21  4  0
 16 24  1  0
 16 25  4  0
 20 24  1  0
 20 26  2  0
 21 23  4  0
 22 23  1  0
M  END
$$$$

 Created by Python create_sdf_string function

 26 28  0  0  0  0  0  0  0  0999 V2000
   12.4616    8.6700   19.4180 N   0  0  0  0  0  0  0  0  0  0  0  0
   11.8329   10.8148   18.6769 N   0  0  0  0  0  0  0  0  0  0  0  0
    6.1021    2.5564   21.0678 C   0  0  0  0  0  0  0  0  0  0  0  0
   10.9097   11.8051   18.4804 C   0  0  0  0  0  0  0  0  0  0  0  0
   11.2280   12.9135   17.5669 C   0  0  0  0  0  0  0  0  0  0  0  0
   12.3782    5.4231   20.7777 C   0  0  0  0  0  0  0  0  0  0  0  0
    7.7365    4.6508   21.6987 C   0  0  0  0  0  0  0  0  0  0  0  0
   13.0186   11.0102   18.0020 C   0  0  0  0  0  0  0  0  0  0  0  0
    8.6628    5.7088   21.8871 N   0  0  0  0  0  0  0  0  0  0  0  0
    5.6516    3.5258   21.9140 C   0  0  0  0  0  0  0  0  0  0  0  0
   11.5863    9.6815   19.4539 C   0  0  0  0  0  0  0  0  0  0  0  0
   12.9648    4.1543   20.9205 C   0  0  0  0  0  0  0  0  0  0  0  0
    8.2089    3.6265   20.8929 C   0  0  0  0  0  0  0  0  0  0  0  0
    7.3827    2.5724   20.5432 C   0  0  0  0  0  0  0  0  0  0  0  0
   11.1529    7.2750   20.8025 C   0  0  0  0  0  0  0  0  0  0  0  0
   10.2573    8.3215   20.9827 C   0  0  0  0  0  0  0  0  0  0  0  0
   11.1606    5.9378   21.2366 N   0  0  0  0  0  0  0  0  0  0  0  0
    9.8932   11.6736   19.0677 O   0  0  0  0  0  0  0  0  0  0  0  0
    6.4470    4.5850   22.2321 C   0  0  0  0  0  0  0  0  0  0  0  0
    8.4619    6.9895   22.2968 C   0  0  0  0  0  0  0  0  0  0  0  0
   12.2747    7.5102   20.0420 C   0  0  0  0  0  0  0  0  0  0  0  0
   14.2544    6.2142   19.4191 C   0  0  0  0  0  0  0  0  0  0  0  0
   13.0695    6.3705   20.0375 N   0  0  0  0  0  0  0  0  0  0  0  0
    9.1913    8.0876   21.8361 N   0  0  0  0  0  0  0  0  0  0  0  0
   10.4739    9.4813   20.2889 C   0  0  0  0  0  0  0  0  0  0  0  0
    7.5551    7.1270   23.1200 O   0  0  0  0  0  0  0  0  0  0  0  0
  1 11  4  0
  1 21  4  0
  2  4  1  0
  2  8  1  0
  2 11  1  0
  3 10  4  0
  3 14  4  0
  4  5  1  0
  4 18  2  0
  6 12  1  0
  6 17  4  0
  6 23  4  0
  7  9  1  0
  7 13  4  0
  7 19  4  0
  9 20  1  0
 10 19  4  0
 11 25  4  0
 13 14  4  0
 15 16  4  0
 15 17  4  0
 15 21  4  0
 16 24  1  0
 16 25  4  0
 20 24  1  0
 20 26  2  0
 21 23  4  0
 22 23  1  0
M  END
$$$$

 Created by Python create_sdf_string function

 26 28  0  0  0  0  0  0  0  0999 V2000
   12.4616    8.6700   19.4180 N   0  0  0  0  0  0  0  0  0  0  0  0
   11.8329   10.8148   18.6769 N   0  0  0  0  0  0  0  0  0  0  0  0
    6.1021    2.5564   21.0678 C   0  0  0  0  0  0  0  0  0  0  0  0
   10.9097   11.8051   18.4804 C   0  0  0  0  0  0  0  0  0  0  0  0
   11.2280   12.9135   17.5669 C   0  0  0  0  0  0  0  0  0  0  0  0
   12.3782    5.4231   20.7777 C   0  0  0  0  0  0  0  0  0  0  0  0
    7.7365    4.6508   21.6987 C   0  0  0  0  0  0  0  0  0  0  0  0
   13.0186   11.0102   18.0020 C   0  0  0  0  0  0  0  0  0  0  0  0
    8.6628    5.7088   21.8871 N   0  0  0  0  0  0  0  0  0  0  0  0
    5.6516    3.5258   21.9140 C   0  0  0  0  0  0  0  0  0  0  0  0
   11.5863    9.6815   19.4539 C   0  0  0  0  0  0  0  0  0  0  0  0
   12.9648    4.1543   20.9205 C   0  0  0  0  0  0  0  0  0  0  0  0
    8.2089    3.6265   20.8929 C   0  0  0  0  0  0  0  0  0  0  0  0
    7.3827    2.5724   20.5432 C   0  0  0  0  0  0  0  0  0  0  0  0
   11.1529    7.2750   20.8025 C   0  0  0  0  0  0  0  0  0  0  0  0
   10.2573    8.3215   20.9827 C   0  0  0  0  0  0  0  0  0  0  0  0
   11.1606    5.9378   21.2366 N   0  0  0  0  0  0  0  0  0  0  0  0
    9.8932   11.6736   19.0677 O   0  0  0  0  0  0  0  0  0  0  0  0
    6.4470    4.5850   22.2321 C   0  0  0  0  0  0  0  0  0  0  0  0
    8.4619    6.9895   22.2968 C   0  0  0  0  0  0  0  0  0  0  0  0
   12.2747    7.5102   20.0420 C   0  0  0  0  0  0  0  0  0  0  0  0
   14.2544    6.2142   19.4191 C   0  0  0  0  0  0  0  0  0  0  0  0
   13.0695    6.3705   20.0375 N   0  0  0  0  0  0  0  0  0  0  0  0
    9.1913    8.0876   21.8361 N   0  0  0  0  0  0  0  0  0  0  0  0
   10.4739    9.4813   20.2889 C   0  0  0  0  0  0  0  0  0  0  0  0
    7.5551    7.1270   23.1200 O   0  0  0  0  0  0  0  0  0  0  0  0
  1 11  4  0
  1 21  4  0
  2  4  1  0
  2  8  1  0
  2 11  1  0
  3 10  4  0
  3 14  4  0
  4  5  1  0
  4 18  2  0
  6 12  1  0
  6 17  4  0
  6 23  4  0
  7  9  1  0
  7 13  4  0
  7 19  4  0
  9 20  1  0
 10 19  4  0
 11 25  4  0
 13 14  4  0
 15 16  4  0
 15 17  4  0
 15 21  4  0
 16 24  1  0
 16 25  4  0
 20 24  1  0
 20 26  2  0
 21 23  4  0
 22 23  1  0
M  END
$$$$

 Created by Python create_sdf_string function

 26 28  0  0  0  0  0  0  0  0999 V2000
   12.4616    8.6700   19.4180 N   0  0  0  0  0  0  0  0  0  0  0  0
   11.8329   10.8148   18.6769 N   0  0  0  0  0  0  0  0  0  0  0  0
    6.1021    2.5564   21.0678 C   0  0  0  0  0  0  0  0  0  0  0  0
   10.9097   11.8051   18.4804 C   0  0  0  0  0  0  0  0  0  0  0  0
   11.2280   12.9135   17.5669 C   0  0  0  0  0  0  0  0  0  0  0  0
   12.3782    5.4231   20.7777 C   0  0  0  0  0  0  0  0  0  0  0  0
    7.7365    4.6508   21.6987 C   0  0  0  0  0  0  0  0  0  0  0  0
   13.0186   11.0102   18.0020 C   0  0  0  0  0  0  0  0  0  0  0  0
    8.6628    5.7088   21.8871 N   0  0  0  0  0  0  0  0  0  0  0  0
    5.6516    3.5258   21.9140 C   0  0  0  0  0  0  0  0  0  0  0  0
   11.5863    9.6815   19.4539 C   0  0  0  0  0  0  0  0  0  0  0  0
   12.9648    4.1543   20.9205 C   0  0  0  0  0  0  0  0  0  0  0  0
    8.2089    3.6265   20.8929 C   0  0  0  0  0  0  0  0  0  0  0  0
    7.3827    2.5724   20.5432 C   0  0  0  0  0  0  0  0  0  0  0  0
   11.1529    7.2750   20.8025 C   0  0  0  0  0  0  0  0  0  0  0  0
   10.2573    8.3215   20.9827 C   0  0  0  0  0  0  0  0  0  0  0  0
   11.1606    5.9378   21.2366 N   0  0  0  0  0  0  0  0  0  0  0  0
    9.8932   11.6736   19.0677 O   0  0  0  0  0  0  0  0  0  0  0  0
    6.4470    4.5850   22.2321 C   0  0  0  0  0  0  0  0  0  0  0  0
    8.4619    6.9895   22.2968 C   0  0  0  0  0  0  0  0  0  0  0  0
   12.2747    7.5102   20.0420 C   0  0  0  0  0  0  0  0  0  0  0  0
   14.2544    6.2142   19.4191 C   0  0  0  0  0  0  0  0  0  0  0  0
   13.0695    6.3705   20.0375 N   0  0  0  0  0  0  0  0  0  0  0  0
    9.1913    8.0876   21.8361 N   0  0  0  0  0  0  0  0  0  0  0  0
   10.4739    9.4813   20.2889 C   0  0  0  0  0  0  0  0  0  0  0  0
    7.5551    7.1270   23.1200 O   0  0  0  0  0  0  0  0  0  0  0  0
  1 11  4  0
  1 21  4  0
  2  4  1  0
  2  8  1  0
  2 11  1  0
  3 10  4  0
  3 14  4  0
  4  5  1  0
  4 18  2  0
  6 12  1  0
  6 17  4  0
  6 23  4  0
  7  9  1  0
  7 13  4  0
  7 19  4  0
  9 20  1  0
 10 19  4  0
 11 25  4  0
 13 14  4  0
 15 16  4  0
 15 17  4  0
 15 21  4  0
 16 24  1  0
 16 25  4  0
 20 24  1  0
 20 26  2  0
 21 23  4  0
 22 23  1  0
M  END
$$$$

 Created by Python create_sdf_string function

 26 28  0  0  0  0  0  0  0  0999 V2000
   12.4616    8.6700   19.4180 N   0  0  0  0  0  0  0  0  0  0  0  0
   11.8329   10.8148   18.6769 N   0  0  0  0  0  0  0  0  0  0  0  0
    6.1021    2.5564   21.0678 C   0  0  0  0  0  0  0  0  0  0  0  0
   10.9097   11.8051   18.4804 C   0  0  0  0  0  0  0  0  0  0  0  0
   11.2280   12.9135   17.5669 C   0  0  0  0  0  0  0  0  0  0  0  0
   12.3782    5.4231   20.7777 C   0  0  0  0  0  0  0  0  0  0  0  0
    7.7365    4.6508   21.6987 C   0  0  0  0  0  0  0  0  0  0  0  0
   13.0186   11.0102   18.0020 C   0  0  0  0  0  0  0  0  0  0  0  0
    8.6628    5.7088   21.8871 N   0  0  0  0  0  0  0  0  0  0  0  0
    5.6516    3.5258   21.9140 C   0  0  0  0  0  0  0  0  0  0  0  0
   11.5863    9.6815   19.4539 C   0  0  0  0  0  0  0  0  0  0  0  0
   12.9648    4.1543   20.9205 C   0  0  0  0  0  0  0  0  0  0  0  0
    8.2089    3.6265   20.8929 C   0  0  0  0  0  0  0  0  0  0  0  0
    7.3827    2.5724   20.5432 C   0  0  0  0  0  0  0  0  0  0  0  0
   11.1529    7.2750   20.8025 C   0  0  0  0  0  0  0  0  0  0  0  0
   10.2573    8.3215   20.9827 C   0  0  0  0  0  0  0  0  0  0  0  0
   11.1606    5.9378   21.2366 N   0  0  0  0  0  0  0  0  0  0  0  0
    9.8932   11.6736   19.0677 O   0  0  0  0  0  0  0  0  0  0  0  0
    6.4470    4.5850   22.2321 C   0  0  0  0  0  0  0  0  0  0  0  0
    8.4619    6.9895   22.2968 C   0  0  0  0  0  0  0  0  0  0  0  0
   12.2747    7.5102   20.0420 C   0  0  0  0  0  0  0  0  0  0  0  0
   14.2544    6.2142   19.4191 C   0  0  0  0  0  0  0  0  0  0  0  0
   13.0695    6.3705   20.0375 N   0  0  0  0  0  0  0  0  0  0  0  0
    9.1913    8.0876   21.8361 N   0  0  0  0  0  0  0  0  0  0  0  0
   10.4739    9.4813   20.2889 C   0  0  0  0  0  0  0  0  0  0  0  0
    7.5551    7.1270   23.1200 O   0  0  0  0  0  0  0  0  0  0  0  0
  1 11  4  0
  1 21  4  0
  2  4  1  0
  2  8  1  0
  2 11  1  0
  3 10  4  0
  3 14  4  0
  4  5  1  0
  4 18  2  0
  6 12  1  0
  6 17  4  0
  6 23  4  0
  7  9  1  0
  7 13  4  0
  7 19  4  0
  9 20  1  0
 10 19  4  0
 11 25  4  0
 13 14  4  0
 15 16  4  0
 15 17  4  0
 15 21  4  0
 16 24  1  0
 16 25  4  0
 20 24  1  0
 20 26  2  0
 21 23  4  0
 22 23  1  0
M  END
$$$$

 Created by Python create_sdf_string function

 26 28  0  0  0  0  0  0  0  0999 V2000
   12.4616    8.6700   19.4180 N   0  0  0  0  0  0  0  0  0  0  0  0
   11.8329   10.8148   18.6769 N   0  0  0  0  0  0  0  0  0  0  0  0
    6.1021    2.5564   21.0678 C   0  0  0  0  0  0  0  0  0  0  0  0
   10.9097   11.8051   18.4804 C   0  0  0  0  0  0  0  0  0  0  0  0
   11.2280   12.9135   17.5669 C   0  0  0  0  0  0  0  0  0  0  0  0
   12.3782    5.4231   20.7777 C   0  0  0  0  0  0  0  0  0  0  0  0
    7.7365    4.6508   21.6987 C   0  0  0  0  0  0  0  0  0  0  0  0
   13.0186   11.0102   18.0020 C   0  0  0  0  0  0  0  0  0  0  0  0
    8.6628    5.7088   21.8871 N   0  0  0  0  0  0  0  0  0  0  0  0
    5.6516    3.5258   21.9140 C   0  0  0  0  0  0  0  0  0  0  0  0
   11.5863    9.6815   19.4539 C   0  0  0  0  0  0  0  0  0  0  0  0
   12.9648    4.1543   20.9205 C   0  0  0  0  0  0  0  0  0  0  0  0
    8.2089    3.6265   20.8929 C   0  0  0  0  0  0  0  0  0  0  0  0
    7.3827    2.5724   20.5432 C   0  0  0  0  0  0  0  0  0  0  0  0
   11.1529    7.2750   20.8025 C   0  0  0  0  0  0  0  0  0  0  0  0
   10.2573    8.3215   20.9827 C   0  0  0  0  0  0  0  0  0  0  0  0
   11.1606    5.9378   21.2366 N   0  0  0  0  0  0  0  0  0  0  0  0
    9.8932   11.6736   19.0677 O   0  0  0  0  0  0  0  0  0  0  0  0
    6.4470    4.5850   22.2321 C   0  0  0  0  0  0  0  0  0  0  0  0
    8.4619    6.9895   22.2968 C   0  0  0  0  0  0  0  0  0  0  0  0
   12.2747    7.5102   20.0420 C   0  0  0  0  0  0  0  0  0  0  0  0
   14.2544    6.2142   19.4191 C   0  0  0  0  0  0  0  0  0  0  0  0
   13.0695    6.3705   20.0375 N   0  0  0  0  0  0  0  0  0  0  0  0
    9.1913    8.0876   21.8361 N   0  0  0  0  0  0  0  0  0  0  0  0
   10.4739    9.4813   20.2889 C   0  0  0  0  0  0  0  0  0  0  0  0
    7.5551    7.1270   23.1200 O   0  0  0  0  0  0  0  0  0  0  0  0
  1 11  4  0
  1 21  4  0
  2  4  1  0
  2  8  1  0
  2 11  1  0
  3 10  4  0
  3 14  4  0
  4  5  1  0
  4 18  2  0
  6 12  1  0
  6 17  4  0
  6 23  4  0
  7  9  1  0
  7 13  4  0
  7 19  4  0
  9 20  1  0
 10 19  4  0
 11 25  4  0
 13 14  4  0
 15 16  4  0
 15 17  4  0
 15 21  4  0
 16 24  1  0
 16 25  4  0
 20 24  1  0
 20 26  2  0
 21 23  4  0
 22 23  1  0
M  END
$$$$

 Created by Python create_sdf_string function

 26 28  0  0  0  0  0  0  0  0999 V2000
   12.4616    8.6700   19.4180 N   0  0  0  0  0  0  0  0  0  0  0  0
   11.8329   10.8148   18.6769 N   0  0  0  0  0  0  0  0  0  0  0  0
    6.1021    2.5564   21.0678 C   0  0  0  0  0  0  0  0  0  0  0  0
   10.9097   11.8051   18.4804 C   0  0  0  0  0  0  0  0  0  0  0  0
   11.2280   12.9135   17.5669 C   0  0  0  0  0  0  0  0  0  0  0  0
   12.3782    5.4231   20.7777 C   0  0  0  0  0  0  0  0  0  0  0  0
    7.7365    4.6508   21.6987 C   0  0  0  0  0  0  0  0  0  0  0  0
   13.0186   11.0102   18.0020 C   0  0  0  0  0  0  0  0  0  0  0  0
    8.6628    5.7088   21.8871 N   0  0  0  0  0  0  0  0  0  0  0  0
    5.6516    3.5258   21.9140 C   0  0  0  0  0  0  0  0  0  0  0  0
   11.5863    9.6815   19.4539 C   0  0  0  0  0  0  0  0  0  0  0  0
   12.9648    4.1543   20.9205 C   0  0  0  0  0  0  0  0  0  0  0  0
    8.2089    3.6265   20.8929 C   0  0  0  0  0  0  0  0  0  0  0  0
    7.3827    2.5724   20.5432 C   0  0  0  0  0  0  0  0  0  0  0  0
   11.1529    7.2750   20.8025 C   0  0  0  0  0  0  0  0  0  0  0  0
   10.2573    8.3215   20.9827 C   0  0  0  0  0  0  0  0  0  0  0  0
   11.1606    5.9378   21.2366 N   0  0  0  0  0  0  0  0  0  0  0  0
    9.8932   11.6736   19.0677 O   0  0  0  0  0  0  0  0  0  0  0  0
    6.4470    4.5850   22.2321 C   0  0  0  0  0  0  0  0  0  0  0  0
    8.4619    6.9895   22.2968 C   0  0  0  0  0  0  0  0  0  0  0  0
   12.2747    7.5102   20.0420 C   0  0  0  0  0  0  0  0  0  0  0  0
   14.2544    6.2142   19.4191 C   0  0  0  0  0  0  0  0  0  0  0  0
   13.0695    6.3705   20.0375 N   0  0  0  0  0  0  0  0  0  0  0  0
    9.1913    8.0876   21.8361 N   0  0  0  0  0  0  0  0  0  0  0  0
   10.4739    9.4813   20.2889 C   0  0  0  0  0  0  0  0  0  0  0  0
    7.5551    7.1270   23.1200 O   0  0  0  0  0  0  0  0  0  0  0  0
  1 11  4  0
  1 21  4  0
  2  4  1  0
  2  8  1  0
  2 11  1  0
  3 10  4  0
  3 14  4  0
  4  5  1  0
  4 18  2  0
  6 12  1  0
  6 17  4  0
  6 23  4  0
  7  9  1  0
  7 13  4  0
  7 19  4  0
  9 20  1  0
 10 19  4  0
 11 25  4  0
 13 14  4  0
 15 16  4  0
 15 17  4  0
 15 21  4  0
 16 24  1  0
 16 25  4  0
 20 24  1  0
 20 26  2  0
 21 23  4  0
 22 23  1  0
M  END
$$$$

 Created by Python create_sdf_string function

 26 28  0  0  0  0  0  0  0  0999 V2000
   12.4616    8.6700   19.4180 N   0  0  0  0  0  0  0  0  0  0  0  0
   11.8329   10.8148   18.6769 N   0  0  0  0  0  0  0  0  0  0  0  0
    6.1021    2.5564   21.0678 C   0  0  0  0  0  0  0  0  0  0  0  0
   10.9097   11.8051   18.4804 C   0  0  0  0  0  0  0  0  0  0  0  0
   11.2280   12.9135   17.5669 C   0  0  0  0  0  0  0  0  0  0  0  0
   12.3782    5.4231   20.7777 C   0  0  0  0  0  0  0  0  0  0  0  0
    7.7365    4.6508   21.6987 C   0  0  0  0  0  0  0  0  0  0  0  0
   13.0186   11.0102   18.0020 C   0  0  0  0  0  0  0  0  0  0  0  0
    8.6628    5.7088   21.8871 N   0  0  0  0  0  0  0  0  0  0  0  0
    5.6516    3.5258   21.9140 C   0  0  0  0  0  0  0  0  0  0  0  0
   11.5863    9.6815   19.4539 C   0  0  0  0  0  0  0  0  0  0  0  0
   12.9648    4.1543   20.9205 C   0  0  0  0  0  0  0  0  0  0  0  0
    8.2089    3.6265   20.8929 C   0  0  0  0  0  0  0  0  0  0  0  0
    7.3827    2.5724   20.5432 C   0  0  0  0  0  0  0  0  0  0  0  0
   11.1529    7.2750   20.8025 C   0  0  0  0  0  0  0  0  0  0  0  0
   10.2573    8.3215   20.9827 C   0  0  0  0  0  0  0  0  0  0  0  0
   11.1606    5.9378   21.2366 N   0  0  0  0  0  0  0  0  0  0  0  0
    9.8932   11.6736   19.0677 O   0  0  0  0  0  0  0  0  0  0  0  0
    6.4470    4.5850   22.2321 C   0  0  0  0  0  0  0  0  0  0  0  0
    8.4619    6.9895   22.2968 C   0  0  0  0  0  0  0  0  0  0  0  0
   12.2747    7.5102   20.0420 C   0  0  0  0  0  0  0  0  0  0  0  0
   14.2544    6.2142   19.4191 C   0  0  0  0  0  0  0  0  0  0  0  0
   13.0695    6.3705   20.0375 N   0  0  0  0  0  0  0  0  0  0  0  0
    9.1913    8.0876   21.8361 N   0  0  0  0  0  0  0  0  0  0  0  0
   10.4739    9.4813   20.2889 C   0  0  0  0  0  0  0  0  0  0  0  0
    7.5551    7.1270   23.1200 O   0  0  0  0  0  0  0  0  0  0  0  0
  1 11  4  0
  1 21  4  0
  2  4  1  0
  2  8  1  0
  2 11  1  0
  3 10  4  0
  3 14  4  0
  4  5  1  0
  4 18  2  0
  6 12  1  0
  6 17  4  0
  6 23  4  0
  7  9  1  0
  7 13  4  0
  7 19  4  0
  9 20  1  0
 10 19  4  0
 11 25  4  0
 13 14  4  0
 15 16  4  0
 15 17  4  0
 15 21  4  0
 16 24  1  0
 16 25  4  0
 20 24  1  0
 20 26  2  0
 21 23  4  0
 22 23  1  0
M  END
$$$$

 Created by Python create_sdf_string function

 26 28  0  0  0  0  0  0  0  0999 V2000
   12.4616    8.6700   19.4180 N   0  0  0  0  0  0  0  0  0  0  0  0
   11.8329   10.8148   18.6769 N   0  0  0  0  0  0  0  0  0  0  0  0
    6.1021    2.5564   21.0678 C   0  0  0  0  0  0  0  0  0  0  0  0
   10.9097   11.8051   18.4804 C   0  0  0  0  0  0  0  0  0  0  0  0
   11.2280   12.9135   17.5669 C   0  0  0  0  0  0  0  0  0  0  0  0
   12.3782    5.4231   20.7777 C   0  0  0  0  0  0  0  0  0  0  0  0
    7.7365    4.6508   21.6987 C   0  0  0  0  0  0  0  0  0  0  0  0
   13.0186   11.0102   18.0020 C   0  0  0  0  0  0  0  0  0  0  0  0
    8.6628    5.7088   21.8871 N   0  0  0  0  0  0  0  0  0  0  0  0
    5.6516    3.5258   21.9140 C   0  0  0  0  0  0  0  0  0  0  0  0
   11.5863    9.6815   19.4539 C   0  0  0  0  0  0  0  0  0  0  0  0
   12.9648    4.1543   20.9205 C   0  0  0  0  0  0  0  0  0  0  0  0
    8.2089    3.6265   20.8929 C   0  0  0  0  0  0  0  0  0  0  0  0
    7.3827    2.5724   20.5432 C   0  0  0  0  0  0  0  0  0  0  0  0
   11.1529    7.2750   20.8025 C   0  0  0  0  0  0  0  0  0  0  0  0
   10.2573    8.3215   20.9827 C   0  0  0  0  0  0  0  0  0  0  0  0
   11.1606    5.9378   21.2366 N   0  0  0  0  0  0  0  0  0  0  0  0
    9.8932   11.6736   19.0677 O   0  0  0  0  0  0  0  0  0  0  0  0
    6.4470    4.5850   22.2321 C   0  0  0  0  0  0  0  0  0  0  0  0
    8.4619    6.9895   22.2968 C   0  0  0  0  0  0  0  0  0  0  0  0
   12.2747    7.5102   20.0420 C   0  0  0  0  0  0  0  0  0  0  0  0
   14.2544    6.2142   19.4191 C   0  0  0  0  0  0  0  0  0  0  0  0
   13.0695    6.3705   20.0375 N   0  0  0  0  0  0  0  0  0  0  0  0
    9.1913    8.0876   21.8361 N   0  0  0  0  0  0  0  0  0  0  0  0
   10.4739    9.4813   20.2889 C   0  0  0  0  0  0  0  0  0  0  0  0
    7.5551    7.1270   23.1200 O   0  0  0  0  0  0  0  0  0  0  0  0
  1 11  4  0
  1 21  4  0
  2  4  1  0
  2  8  1  0
  2 11  1  0
  3 10  4  0
  3 14  4  0
  4  5  1  0
  4 18  2  0
  6 12  1  0
  6 17  4  0
  6 23  4  0
  7  9  1  0
  7 13  4  0
  7 19  4  0
  9 20  1  0
 10 19  4  0
 11 25  4  0
 13 14  4  0
 15 16  4  0
 15 17  4  0
 15 21  4  0
 16 24  1  0
 16 25  4  0
 20 24  1  0
 20 26  2  0
 21 23  4  0
 22 23  1  0
M  END
$$$$

 Created by Python create_sdf_string function

 26 28  0  0  0  0  0  0  0  0999 V2000
   12.4616    8.6700   19.4180 N   0  0  0  0  0  0  0  0  0  0  0  0
   11.8329   10.8148   18.6769 N   0  0  0  0  0  0  0  0  0  0  0  0
    6.1021    2.5564   21.0678 C   0  0  0  0  0  0  0  0  0  0  0  0
   10.9097   11.8051   18.4804 C   0  0  0  0  0  0  0  0  0  0  0  0
   11.2280   12.9135   17.5669 C   0  0  0  0  0  0  0  0  0  0  0  0
   12.3782    5.4231   20.7777 C   0  0  0  0  0  0  0  0  0  0  0  0
    7.7365    4.6508   21.6987 C   0  0  0  0  0  0  0  0  0  0  0  0
   13.0186   11.0102   18.0020 C   0  0  0  0  0  0  0  0  0  0  0  0
    8.6628    5.7088   21.8871 N   0  0  0  0  0  0  0  0  0  0  0  0
    5.6516    3.5258   21.9140 C   0  0  0  0  0  0  0  0  0  0  0  0
   11.5863    9.6815   19.4539 C   0  0  0  0  0  0  0  0  0  0  0  0
   12.9648    4.1543   20.9205 C   0  0  0  0  0  0  0  0  0  0  0  0
    8.2089    3.6265   20.8929 C   0  0  0  0  0  0  0  0  0  0  0  0
    7.3827    2.5724   20.5432 C   0  0  0  0  0  0  0  0  0  0  0  0
   11.1529    7.2750   20.8025 C   0  0  0  0  0  0  0  0  0  0  0  0
   10.2573    8.3215   20.9827 C   0  0  0  0  0  0  0  0  0  0  0  0
   11.1606    5.9378   21.2366 N   0  0  0  0  0  0  0  0  0  0  0  0
    9.8932   11.6736   19.0677 O   0  0  0  0  0  0  0  0  0  0  0  0
    6.4470    4.5850   22.2321 C   0  0  0  0  0  0  0  0  0  0  0  0
    8.4619    6.9895   22.2968 C   0  0  0  0  0  0  0  0  0  0  0  0
   12.2747    7.5102   20.0420 C   0  0  0  0  0  0  0  0  0  0  0  0
   14.2544    6.2142   19.4191 C   0  0  0  0  0  0  0  0  0  0  0  0
   13.0695    6.3705   20.0375 N   0  0  0  0  0  0  0  0  0  0  0  0
    9.1913    8.0876   21.8361 N   0  0  0  0  0  0  0  0  0  0  0  0
   10.4739    9.4813   20.2889 C   0  0  0  0  0  0  0  0  0  0  0  0
    7.5551    7.1270   23.1200 O   0  0  0  0  0  0  0  0  0  0  0  0
  1 11  4  0
  1 21  4  0
  2  4  1  0
  2  8  1  0
  2 11  1  0
  3 10  4  0
  3 14  4  0
  4  5  1  0
  4 18  2  0
  6 12  1  0
  6 17  4  0
  6 23  4  0
  7  9  1  0
  7 13  4  0
  7 19  4  0
  9 20  1  0
 10 19  4  0
 11 25  4  0
 13 14  4  0
 15 16  4  0
 15 17  4  0
 15 21  4  0
 16 24  1  0
 16 25  4  0
 20 24  1  0
 20 26  2  0
 21 23  4  0
 22 23  1  0
M  END
$$$$

 Created by Python create_sdf_string function

 26 28  0  0  0  0  0  0  0  0999 V2000
   12.4616    8.6700   19.4180 N   0  0  0  0  0  0  0  0  0  0  0  0
   11.8329   10.8148   18.6769 N   0  0  0  0  0  0  0  0  0  0  0  0
    6.1021    2.5564   21.0678 C   0  0  0  0  0  0  0  0  0  0  0  0
   10.9097   11.8051   18.4804 C   0  0  0  0  0  0  0  0  0  0  0  0
   11.2280   12.9135   17.5669 C   0  0  0  0  0  0  0  0  0  0  0  0
   12.3782    5.4231   20.7777 C   0  0  0  0  0  0  0  0  0  0  0  0
    7.7365    4.6508   21.6987 C   0  0  0  0  0  0  0  0  0  0  0  0
   13.0186   11.0102   18.0020 C   0  0  0  0  0  0  0  0  0  0  0  0
    8.6628    5.7088   21.8871 N   0  0  0  0  0  0  0  0  0  0  0  0
    5.6516    3.5258   21.9140 C   0  0  0  0  0  0  0  0  0  0  0  0
   11.5863    9.6815   19.4539 C   0  0  0  0  0  0  0  0  0  0  0  0
   12.9648    4.1543   20.9205 C   0  0  0  0  0  0  0  0  0  0  0  0
    8.2089    3.6265   20.8929 C   0  0  0  0  0  0  0  0  0  0  0  0
    7.3827    2.5724   20.5432 C   0  0  0  0  0  0  0  0  0  0  0  0
   11.1529    7.2750   20.8025 C   0  0  0  0  0  0  0  0  0  0  0  0
   10.2573    8.3215   20.9827 C   0  0  0  0  0  0  0  0  0  0  0  0
   11.1606    5.9378   21.2366 N   0  0  0  0  0  0  0  0  0  0  0  0
    9.8932   11.6736   19.0677 O   0  0  0  0  0  0  0  0  0  0  0  0
    6.4470    4.5850   22.2321 C   0  0  0  0  0  0  0  0  0  0  0  0
    8.4619    6.9895   22.2968 C   0  0  0  0  0  0  0  0  0  0  0  0
   12.2747    7.5102   20.0420 C   0  0  0  0  0  0  0  0  0  0  0  0
   14.2544    6.2142   19.4191 C   0  0  0  0  0  0  0  0  0  0  0  0
   13.0695    6.3705   20.0375 N   0  0  0  0  0  0  0  0  0  0  0  0
    9.1913    8.0876   21.8361 N   0  0  0  0  0  0  0  0  0  0  0  0
   10.4739    9.4813   20.2889 C   0  0  0  0  0  0  0  0  0  0  0  0
    7.5551    7.1270   23.1200 O   0  0  0  0  0  0  0  0  0  0  0  0
  1 11  4  0
  1 21  4  0
  2  4  1  0
  2  8  1  0
  2 11  1  0
  3 10  4  0
  3 14  4  0
  4  5  1  0
  4 18  2  0
  6 12  1  0
  6 17  4  0
  6 23  4  0
  7  9  1  0
  7 13  4  0
  7 19  4  0
  9 20  1  0
 10 19  4  0
 11 25  4  0
 13 14  4  0
 15 16  4  0
 15 17  4  0
 15 21  4  0
 16 24  1  0
 16 25  4  0
 20 24  1  0
 20 26  2  0
 21 23  4  0
 22 23  1  0
M  END
$$$$

 Created by Python create_sdf_string function

 26 28  0  0  0  0  0  0  0  0999 V2000
   12.4616    8.6700   19.4180 N   0  0  0  0  0  0  0  0  0  0  0  0
   11.8329   10.8148   18.6769 N   0  0  0  0  0  0  0  0  0  0  0  0
    6.1021    2.5564   21.0678 C   0  0  0  0  0  0  0  0  0  0  0  0
   10.9097   11.8051   18.4804 C   0  0  0  0  0  0  0  0  0  0  0  0
   11.2280   12.9135   17.5669 C   0  0  0  0  0  0  0  0  0  0  0  0
   12.3782    5.4231   20.7777 C   0  0  0  0  0  0  0  0  0  0  0  0
    7.7365    4.6508   21.6987 C   0  0  0  0  0  0  0  0  0  0  0  0
   13.0186   11.0102   18.0020 C   0  0  0  0  0  0  0  0  0  0  0  0
    8.6628    5.7088   21.8871 N   0  0  0  0  0  0  0  0  0  0  0  0
    5.6516    3.5258   21.9140 C   0  0  0  0  0  0  0  0  0  0  0  0
   11.5863    9.6815   19.4539 C   0  0  0  0  0  0  0  0  0  0  0  0
   12.9648    4.1543   20.9205 C   0  0  0  0  0  0  0  0  0  0  0  0
    8.2089    3.6265   20.8929 C   0  0  0  0  0  0  0  0  0  0  0  0
    7.3827    2.5724   20.5432 C   0  0  0  0  0  0  0  0  0  0  0  0
   11.1529    7.2750   20.8025 C   0  0  0  0  0  0  0  0  0  0  0  0
   10.2573    8.3215   20.9827 C   0  0  0  0  0  0  0  0  0  0  0  0
   11.1606    5.9378   21.2366 N   0  0  0  0  0  0  0  0  0  0  0  0
    9.8932   11.6736   19.0677 O   0  0  0  0  0  0  0  0  0  0  0  0
    6.4470    4.5850   22.2321 C   0  0  0  0  0  0  0  0  0  0  0  0
    8.4619    6.9895   22.2968 C   0  0  0  0  0  0  0  0  0  0  0  0
   12.2747    7.5102   20.0420 C   0  0  0  0  0  0  0  0  0  0  0  0
   14.2544    6.2142   19.4191 C   0  0  0  0  0  0  0  0  0  0  0  0
   13.0695    6.3705   20.0375 N   0  0  0  0  0  0  0  0  0  0  0  0
    9.1913    8.0876   21.8361 N   0  0  0  0  0  0  0  0  0  0  0  0
   10.4739    9.4813   20.2889 C   0  0  0  0  0  0  0  0  0  0  0  0
    7.5551    7.1270   23.1200 O   0  0  0  0  0  0  0  0  0  0  0  0
  1 11  4  0
  1 21  4  0
  2  4  1  0
  2  8  1  0
  2 11  1  0
  3 10  4  0
  3 14  4  0
  4  5  1  0
  4 18  2  0
  6 12  1  0
  6 17  4  0
  6 23  4  0
  7  9  1  0
  7 13  4  0
  7 19  4  0
  9 20  1  0
 10 19  4  0
 11 25  4  0
 13 14  4  0
 15 16  4  0
 15 17  4  0
 15 21  4  0
 16 24  1  0
 16 25  4  0
 20 24  1  0
 20 26  2  0
 21 23  4  0
 22 23  1  0
M  END
$$$$

 Created by Python create_sdf_string function

 26 28  0  0  0  0  0  0  0  0999 V2000
   12.4616    8.6700   19.4180 N   0  0  0  0  0  0  0  0  0  0  0  0
   11.8329   10.8148   18.6769 N   0  0  0  0  0  0  0  0  0  0  0  0
    6.1021    2.5564   21.0678 C   0  0  0  0  0  0  0  0  0  0  0  0
   10.9097   11.8051   18.4804 C   0  0  0  0  0  0  0  0  0  0  0  0
   11.2280   12.9135   17.5669 C   0  0  0  0  0  0  0  0  0  0  0  0
   12.3782    5.4231   20.7777 C   0  0  0  0  0  0  0  0  0  0  0  0
    7.7365    4.6508   21.6987 C   0  0  0  0  0  0  0  0  0  0  0  0
   13.0186   11.0102   18.0020 C   0  0  0  0  0  0  0  0  0  0  0  0
    8.6628    5.7088   21.8871 N   0  0  0  0  0  0  0  0  0  0  0  0
    5.6516    3.5258   21.9140 C   0  0  0  0  0  0  0  0  0  0  0  0
   11.5863    9.6815   19.4539 C   0  0  0  0  0  0  0  0  0  0  0  0
   12.9648    4.1543   20.9205 C   0  0  0  0  0  0  0  0  0  0  0  0
    8.2089    3.6265   20.8929 C   0  0  0  0  0  0  0  0  0  0  0  0
    7.3827    2.5724   20.5432 C   0  0  0  0  0  0  0  0  0  0  0  0
   11.1529    7.2750   20.8025 C   0  0  0  0  0  0  0  0  0  0  0  0
   10.2573    8.3215   20.9827 C   0  0  0  0  0  0  0  0  0  0  0  0
   11.1606    5.9378   21.2366 N   0  0  0  0  0  0  0  0  0  0  0  0
    9.8932   11.6736   19.0677 O   0  0  0  0  0  0  0  0  0  0  0  0
    6.4470    4.5850   22.2321 C   0  0  0  0  0  0  0  0  0  0  0  0
    8.4619    6.9895   22.2968 C   0  0  0  0  0  0  0  0  0  0  0  0
   12.2747    7.5102   20.0420 C   0  0  0  0  0  0  0  0  0  0  0  0
   14.2544    6.2142   19.4191 C   0  0  0  0  0  0  0  0  0  0  0  0
   13.0695    6.3705   20.0375 N   0  0  0  0  0  0  0  0  0  0  0  0
    9.1913    8.0876   21.8361 N   0  0  0  0  0  0  0  0  0  0  0  0
   10.4739    9.4813   20.2889 C   0  0  0  0  0  0  0  0  0  0  0  0
    7.5551    7.1270   23.1200 O   0  0  0  0  0  0  0  0  0  0  0  0
  1 11  4  0
  1 21  4  0
  2  4  1  0
  2  8  1  0
  2 11  1  0
  3 10  4  0
  3 14  4  0
  4  5  1  0
  4 18  2  0
  6 12  1  0
  6 17  4  0
  6 23  4  0
  7  9  1  0
  7 13  4  0
  7 19  4  0
  9 20  1  0
 10 19  4  0
 11 25  4  0
 13 14  4  0
 15 16  4  0
 15 17  4  0
 15 21  4  0
 16 24  1  0
 16 25  4  0
 20 24  1  0
 20 26  2  0
 21 23  4  0
 22 23  1  0
M  END
$$$$

 Created by Python create_sdf_string function

 26 28  0  0  0  0  0  0  0  0999 V2000
   12.4616    8.6700   19.4180 N   0  0  0  0  0  0  0  0  0  0  0  0
   11.8329   10.8148   18.6769 N   0  0  0  0  0  0  0  0  0  0  0  0
    6.1021    2.5564   21.0678 C   0  0  0  0  0  0  0  0  0  0  0  0
   10.9097   11.8051   18.4804 C   0  0  0  0  0  0  0  0  0  0  0  0
   11.2280   12.9135   17.5669 C   0  0  0  0  0  0  0  0  0  0  0  0
   12.3782    5.4231   20.7777 C   0  0  0  0  0  0  0  0  0  0  0  0
    7.7365    4.6508   21.6987 C   0  0  0  0  0  0  0  0  0  0  0  0
   13.0186   11.0102   18.0020 C   0  0  0  0  0  0  0  0  0  0  0  0
    8.6628    5.7088   21.8871 N   0  0  0  0  0  0  0  0  0  0  0  0
    5.6516    3.5258   21.9140 C   0  0  0  0  0  0  0  0  0  0  0  0
   11.5863    9.6815   19.4539 C   0  0  0  0  0  0  0  0  0  0  0  0
   12.9648    4.1543   20.9205 C   0  0  0  0  0  0  0  0  0  0  0  0
    8.2089    3.6265   20.8929 C   0  0  0  0  0  0  0  0  0  0  0  0
    7.3827    2.5724   20.5432 C   0  0  0  0  0  0  0  0  0  0  0  0
   11.1529    7.2750   20.8025 C   0  0  0  0  0  0  0  0  0  0  0  0
   10.2573    8.3215   20.9827 C   0  0  0  0  0  0  0  0  0  0  0  0
   11.1606    5.9378   21.2366 N   0  0  0  0  0  0  0  0  0  0  0  0
    9.8932   11.6736   19.0677 O   0  0  0  0  0  0  0  0  0  0  0  0
    6.4470    4.5850   22.2321 C   0  0  0  0  0  0  0  0  0  0  0  0
    8.4619    6.9895   22.2968 C   0  0  0  0  0  0  0  0  0  0  0  0
   12.2747    7.5102   20.0420 C   0  0  0  0  0  0  0  0  0  0  0  0
   14.2544    6.2142   19.4191 C   0  0  0  0  0  0  0  0  0  0  0  0
   13.0695    6.3705   20.0375 N   0  0  0  0  0  0  0  0  0  0  0  0
    9.1913    8.0876   21.8361 N   0  0  0  0  0  0  0  0  0  0  0  0
   10.4739    9.4813   20.2889 C   0  0  0  0  0  0  0  0  0  0  0  0
    7.5551    7.1270   23.1200 O   0  0  0  0  0  0  0  0  0  0  0  0
  1 11  4  0
  1 21  4  0
  2  4  1  0
  2  8  1  0
  2 11  1  0
  3 10  4  0
  3 14  4  0
  4  5  1  0
  4 18  2  0
  6 12  1  0
  6 17  4  0
  6 23  4  0
  7  9  1  0
  7 13  4  0
  7 19  4  0
  9 20  1  0
 10 19  4  0
 11 25  4  0
 13 14  4  0
 15 16  4  0
 15 17  4  0
 15 21  4  0
 16 24  1  0
 16 25  4  0
 20 24  1  0
 20 26  2  0
 21 23  4  0
 22 23  1  0
M  END
$$$$

 Created by Python create_sdf_string function

 26 28  0  0  0  0  0  0  0  0999 V2000
   12.4616    8.6700   19.4180 N   0  0  0  0  0  0  0  0  0  0  0  0
   11.8329   10.8148   18.6769 N   0  0  0  0  0  0  0  0  0  0  0  0
    6.1021    2.5564   21.0678 C   0  0  0  0  0  0  0  0  0  0  0  0
   10.9097   11.8051   18.4804 C   0  0  0  0  0  0  0  0  0  0  0  0
   11.2280   12.9135   17.5669 C   0  0  0  0  0  0  0  0  0  0  0  0
   12.3782    5.4231   20.7777 C   0  0  0  0  0  0  0  0  0  0  0  0
    7.7365    4.6508   21.6987 C   0  0  0  0  0  0  0  0  0  0  0  0
   13.0186   11.0102   18.0020 C   0  0  0  0  0  0  0  0  0  0  0  0
    8.6628    5.7088   21.8871 N   0  0  0  0  0  0  0  0  0  0  0  0
    5.6516    3.5258   21.9140 C   0  0  0  0  0  0  0  0  0  0  0  0
   11.5863    9.6815   19.4539 C   0  0  0  0  0  0  0  0  0  0  0  0
   12.9648    4.1543   20.9205 C   0  0  0  0  0  0  0  0  0  0  0  0
    8.2089    3.6265   20.8929 C   0  0  0  0  0  0  0  0  0  0  0  0
    7.3827    2.5724   20.5432 C   0  0  0  0  0  0  0  0  0  0  0  0
   11.1529    7.2750   20.8025 C   0  0  0  0  0  0  0  0  0  0  0  0
   10.2573    8.3215   20.9827 C   0  0  0  0  0  0  0  0  0  0  0  0
   11.1606    5.9378   21.2366 N   0  0  0  0  0  0  0  0  0  0  0  0
    9.8932   11.6736   19.0677 O   0  0  0  0  0  0  0  0  0  0  0  0
    6.4470    4.5850   22.2321 C   0  0  0  0  0  0  0  0  0  0  0  0
    8.4619    6.9895   22.2968 C   0  0  0  0  0  0  0  0  0  0  0  0
   12.2747    7.5102   20.0420 C   0  0  0  0  0  0  0  0  0  0  0  0
   14.2544    6.2142   19.4191 C   0  0  0  0  0  0  0  0  0  0  0  0
   13.0695    6.3705   20.0375 N   0  0  0  0  0  0  0  0  0  0  0  0
    9.1913    8.0876   21.8361 N   0  0  0  0  0  0  0  0  0  0  0  0
   10.4739    9.4813   20.2889 C   0  0  0  0  0  0  0  0  0  0  0  0
    7.5551    7.1270   23.1200 O   0  0  0  0  0  0  0  0  0  0  0  0
  1 11  4  0
  1 21  4  0
  2  4  1  0
  2  8  1  0
  2 11  1  0
  3 10  4  0
  3 14  4  0
  4  5  1  0
  4 18  2  0
  6 12  1  0
  6 17  4  0
  6 23  4  0
  7  9  1  0
  7 13  4  0
  7 19  4  0
  9 20  1  0
 10 19  4  0
 11 25  4  0
 13 14  4  0
 15 16  4  0
 15 17  4  0
 15 21  4  0
 16 24  1  0
 16 25  4  0
 20 24  1  0
 20 26  2  0
 21 23  4  0
 22 23  1  0
M  END
$$$$

 Created by Python create_sdf_string function

 26 28  0  0  0  0  0  0  0  0999 V2000
   12.4616    8.6700   19.4180 N   0  0  0  0  0  0  0  0  0  0  0  0
   11.8329   10.8148   18.6769 N   0  0  0  0  0  0  0  0  0  0  0  0
    6.1021    2.5564   21.0678 C   0  0  0  0  0  0  0  0  0  0  0  0
   10.9097   11.8051   18.4804 C   0  0  0  0  0  0  0  0  0  0  0  0
   11.2280   12.9135   17.5669 C   0  0  0  0  0  0  0  0  0  0  0  0
   12.3782    5.4231   20.7777 C   0  0  0  0  0  0  0  0  0  0  0  0
    7.7365    4.6508   21.6987 C   0  0  0  0  0  0  0  0  0  0  0  0
   13.0186   11.0102   18.0020 C   0  0  0  0  0  0  0  0  0  0  0  0
    8.6628    5.7088   21.8871 N   0  0  0  0  0  0  0  0  0  0  0  0
    5.6516    3.5258   21.9140 C   0  0  0  0  0  0  0  0  0  0  0  0
   11.5863    9.6815   19.4539 C   0  0  0  0  0  0  0  0  0  0  0  0
   12.9648    4.1543   20.9205 C   0  0  0  0  0  0  0  0  0  0  0  0
    8.2089    3.6265   20.8929 C   0  0  0  0  0  0  0  0  0  0  0  0
    7.3827    2.5724   20.5432 C   0  0  0  0  0  0  0  0  0  0  0  0
   11.1529    7.2750   20.8025 C   0  0  0  0  0  0  0  0  0  0  0  0
   10.2573    8.3215   20.9827 C   0  0  0  0  0  0  0  0  0  0  0  0
   11.1606    5.9378   21.2366 N   0  0  0  0  0  0  0  0  0  0  0  0
    9.8932   11.6736   19.0677 O   0  0  0  0  0  0  0  0  0  0  0  0
    6.4470    4.5850   22.2321 C   0  0  0  0  0  0  0  0  0  0  0  0
    8.4619    6.9895   22.2968 C   0  0  0  0  0  0  0  0  0  0  0  0
   12.2747    7.5102   20.0420 C   0  0  0  0  0  0  0  0  0  0  0  0
   14.2544    6.2142   19.4191 C   0  0  0  0  0  0  0  0  0  0  0  0
   13.0695    6.3705   20.0375 N   0  0  0  0  0  0  0  0  0  0  0  0
    9.1913    8.0876   21.8361 N   0  0  0  0  0  0  0  0  0  0  0  0
   10.4739    9.4813   20.2889 C   0  0  0  0  0  0  0  0  0  0  0  0
    7.5551    7.1270   23.1200 O   0  0  0  0  0  0  0  0  0  0  0  0
  1 11  4  0
  1 21  4  0
  2  4  1  0
  2  8  1  0
  2 11  1  0
  3 10  4  0
  3 14  4  0
  4  5  1  0
  4 18  2  0
  6 12  1  0
  6 17  4  0
  6 23  4  0
  7  9  1  0
  7 13  4  0
  7 19  4  0
  9 20  1  0
 10 19  4  0
 11 25  4  0
 13 14  4  0
 15 16  4  0
 15 17  4  0
 15 21  4  0
 16 24  1  0
 16 25  4  0
 20 24  1  0
 20 26  2  0
 21 23  4  0
 22 23  1  0
M  END
$$$$

 Created by Python create_sdf_string function

 26 28  0  0  0  0  0  0  0  0999 V2000
   12.4616    8.6700   19.4180 N   0  0  0  0  0  0  0  0  0  0  0  0
   11.8329   10.8148   18.6769 N   0  0  0  0  0  0  0  0  0  0  0  0
    6.1021    2.5564   21.0678 C   0  0  0  0  0  0  0  0  0  0  0  0
   10.9097   11.8051   18.4804 C   0  0  0  0  0  0  0  0  0  0  0  0
   11.2280   12.9135   17.5669 C   0  0  0  0  0  0  0  0  0  0  0  0
   12.3782    5.4231   20.7777 C   0  0  0  0  0  0  0  0  0  0  0  0
    7.7365    4.6508   21.6987 C   0  0  0  0  0  0  0  0  0  0  0  0
   13.0186   11.0102   18.0020 C   0  0  0  0  0  0  0  0  0  0  0  0
    8.6628    5.7088   21.8871 N   0  0  0  0  0  0  0  0  0  0  0  0
    5.6516    3.5258   21.9140 C   0  0  0  0  0  0  0  0  0  0  0  0
   11.5863    9.6815   19.4539 C   0  0  0  0  0  0  0  0  0  0  0  0
   12.9648    4.1543   20.9205 C   0  0  0  0  0  0  0  0  0  0  0  0
    8.2089    3.6265   20.8929 C   0  0  0  0  0  0  0  0  0  0  0  0
    7.3827    2.5724   20.5432 C   0  0  0  0  0  0  0  0  0  0  0  0
   11.1529    7.2750   20.8025 C   0  0  0  0  0  0  0  0  0  0  0  0
   10.2573    8.3215   20.9827 C   0  0  0  0  0  0  0  0  0  0  0  0
   11.1606    5.9378   21.2366 N   0  0  0  0  0  0  0  0  0  0  0  0
    9.8932   11.6736   19.0677 O   0  0  0  0  0  0  0  0  0  0  0  0
    6.4470    4.5850   22.2321 C   0  0  0  0  0  0  0  0  0  0  0  0
    8.4619    6.9895   22.2968 C   0  0  0  0  0  0  0  0  0  0  0  0
   12.2747    7.5102   20.0420 C   0  0  0  0  0  0  0  0  0  0  0  0
   14.2544    6.2142   19.4191 C   0  0  0  0  0  0  0  0  0  0  0  0
   13.0695    6.3705   20.0375 N   0  0  0  0  0  0  0  0  0  0  0  0
    9.1913    8.0876   21.8361 N   0  0  0  0  0  0  0  0  0  0  0  0
   10.4739    9.4813   20.2889 C   0  0  0  0  0  0  0  0  0  0  0  0
    7.5551    7.1270   23.1200 O   0  0  0  0  0  0  0  0  0  0  0  0
  1 11  4  0
  1 21  4  0
  2  4  1  0
  2  8  1  0
  2 11  1  0
  3 10  4  0
  3 14  4  0
  4  5  1  0
  4 18  2  0
  6 12  1  0
  6 17  4  0
  6 23  4  0
  7  9  1  0
  7 13  4  0
  7 19  4  0
  9 20  1  0
 10 19  4  0
 11 25  4  0
 13 14  4  0
 15 16  4  0
 15 17  4  0
 15 21  4  0
 16 24  1  0
 16 25  4  0
 20 24  1  0
 20 26  2  0
 21 23  4  0
 22 23  1  0
M  END
$$$$

 Created by Python create_sdf_string function

 26 28  0  0  0  0  0  0  0  0999 V2000
   12.4616    8.6700   19.4180 N   0  0  0  0  0  0  0  0  0  0  0  0
   11.8329   10.8148   18.6769 N   0  0  0  0  0  0  0  0  0  0  0  0
    6.1021    2.5564   21.0678 C   0  0  0  0  0  0  0  0  0  0  0  0
   10.9097   11.8051   18.4804 C   0  0  0  0  0  0  0  0  0  0  0  0
   11.2280   12.9135   17.5669 C   0  0  0  0  0  0  0  0  0  0  0  0
   12.3782    5.4231   20.7777 C   0  0  0  0  0  0  0  0  0  0  0  0
    7.7365    4.6508   21.6987 C   0  0  0  0  0  0  0  0  0  0  0  0
   13.0186   11.0102   18.0020 C   0  0  0  0  0  0  0  0  0  0  0  0
    8.6628    5.7088   21.8871 N   0  0  0  0  0  0  0  0  0  0  0  0
    5.6516    3.5258   21.9140 C   0  0  0  0  0  0  0  0  0  0  0  0
   11.5863    9.6815   19.4539 C   0  0  0  0  0  0  0  0  0  0  0  0
   12.9648    4.1543   20.9205 C   0  0  0  0  0  0  0  0  0  0  0  0
    8.2089    3.6265   20.8929 C   0  0  0  0  0  0  0  0  0  0  0  0
    7.3827    2.5724   20.5432 C   0  0  0  0  0  0  0  0  0  0  0  0
   11.1529    7.2750   20.8025 C   0  0  0  0  0  0  0  0  0  0  0  0
   10.2573    8.3215   20.9827 C   0  0  0  0  0  0  0  0  0  0  0  0
   11.1606    5.9378   21.2366 N   0  0  0  0  0  0  0  0  0  0  0  0
    9.8932   11.6736   19.0677 O   0  0  0  0  0  0  0  0  0  0  0  0
    6.4470    4.5850   22.2321 C   0  0  0  0  0  0  0  0  0  0  0  0
    8.4619    6.9895   22.2968 C   0  0  0  0  0  0  0  0  0  0  0  0
   12.2747    7.5102   20.0420 C   0  0  0  0  0  0  0  0  0  0  0  0
   14.2544    6.2142   19.4191 C   0  0  0  0  0  0  0  0  0  0  0  0
   13.0695    6.3705   20.0375 N   0  0  0  0  0  0  0  0  0  0  0  0
    9.1913    8.0876   21.8361 N   0  0  0  0  0  0  0  0  0  0  0  0
   10.4739    9.4813   20.2889 C   0  0  0  0  0  0  0  0  0  0  0  0
    7.5551    7.1270   23.1200 O   0  0  0  0  0  0  0  0  0  0  0  0
  1 11  4  0
  1 21  4  0
  2  4  1  0
  2  8  1  0
  2 11  1  0
  3 10  4  0
  3 14  4  0
  4  5  1  0
  4 18  2  0
  6 12  1  0
  6 17  4  0
  6 23  4  0
  7  9  1  0
  7 13  4  0
  7 19  4  0
  9 20  1  0
 10 19  4  0
 11 25  4  0
 13 14  4  0
 15 16  4  0
 15 17  4  0
 15 21  4  0
 16 24  1  0
 16 25  4  0
 20 24  1  0
 20 26  2  0
 21 23  4  0
 22 23  1  0
M  END
$$$$

 Created by Python create_sdf_string function

 26 28  0  0  0  0  0  0  0  0999 V2000
   12.4616    8.6700   19.4180 N   0  0  0  0  0  0  0  0  0  0  0  0
   11.8329   10.8148   18.6769 N   0  0  0  0  0  0  0  0  0  0  0  0
    6.1021    2.5564   21.0678 C   0  0  0  0  0  0  0  0  0  0  0  0
   10.9097   11.8051   18.4804 C   0  0  0  0  0  0  0  0  0  0  0  0
   11.2280   12.9135   17.5669 C   0  0  0  0  0  0  0  0  0  0  0  0
   12.3782    5.4231   20.7777 C   0  0  0  0  0  0  0  0  0  0  0  0
    7.7365    4.6508   21.6987 C   0  0  0  0  0  0  0  0  0  0  0  0
   13.0186   11.0102   18.0020 C   0  0  0  0  0  0  0  0  0  0  0  0
    8.6628    5.7088   21.8871 N   0  0  0  0  0  0  0  0  0  0  0  0
    5.6516    3.5258   21.9140 C   0  0  0  0  0  0  0  0  0  0  0  0
   11.5863    9.6815   19.4539 C   0  0  0  0  0  0  0  0  0  0  0  0
   12.9648    4.1543   20.9205 C   0  0  0  0  0  0  0  0  0  0  0  0
    8.2089    3.6265   20.8929 C   0  0  0  0  0  0  0  0  0  0  0  0
    7.3827    2.5724   20.5432 C   0  0  0  0  0  0  0  0  0  0  0  0
   11.1529    7.2750   20.8025 C   0  0  0  0  0  0  0  0  0  0  0  0
   10.2573    8.3215   20.9827 C   0  0  0  0  0  0  0  0  0  0  0  0
   11.1606    5.9378   21.2366 N   0  0  0  0  0  0  0  0  0  0  0  0
    9.8932   11.6736   19.0677 O   0  0  0  0  0  0  0  0  0  0  0  0
    6.4470    4.5850   22.2321 C   0  0  0  0  0  0  0  0  0  0  0  0
    8.4619    6.9895   22.2968 C   0  0  0  0  0  0  0  0  0  0  0  0
   12.2747    7.5102   20.0420 C   0  0  0  0  0  0  0  0  0  0  0  0
   14.2544    6.2142   19.4191 C   0  0  0  0  0  0  0  0  0  0  0  0
   13.0695    6.3705   20.0375 N   0  0  0  0  0  0  0  0  0  0  0  0
    9.1913    8.0876   21.8361 N   0  0  0  0  0  0  0  0  0  0  0  0
   10.4739    9.4813   20.2889 C   0  0  0  0  0  0  0  0  0  0  0  0
    7.5551    7.1270   23.1200 O   0  0  0  0  0  0  0  0  0  0  0  0
  1 11  4  0
  1 21  4  0
  2  4  1  0
  2  8  1  0
  2 11  1  0
  3 10  4  0
  3 14  4  0
  4  5  1  0
  4 18  2  0
  6 12  1  0
  6 17  4  0
  6 23  4  0
  7  9  1  0
  7 13  4  0
  7 19  4  0
  9 20  1  0
 10 19  4  0
 11 25  4  0
 13 14  4  0
 15 16  4  0
 15 17  4  0
 15 21  4  0
 16 24  1  0
 16 25  4  0
 20 24  1  0
 20 26  2  0
 21 23  4  0
 22 23  1  0
M  END
$$$$

 Created by Python create_sdf_string function

 26 28  0  0  0  0  0  0  0  0999 V2000
   12.4616    8.6700   19.4180 N   0  0  0  0  0  0  0  0  0  0  0  0
   11.8329   10.8148   18.6769 N   0  0  0  0  0  0  0  0  0  0  0  0
    6.1021    2.5564   21.0678 C   0  0  0  0  0  0  0  0  0  0  0  0
   10.9097   11.8051   18.4804 C   0  0  0  0  0  0  0  0  0  0  0  0
   11.2280   12.9135   17.5669 C   0  0  0  0  0  0  0  0  0  0  0  0
   12.3782    5.4231   20.7777 C   0  0  0  0  0  0  0  0  0  0  0  0
    7.7365    4.6508   21.6987 C   0  0  0  0  0  0  0  0  0  0  0  0
   13.0186   11.0102   18.0020 C   0  0  0  0  0  0  0  0  0  0  0  0
    8.6628    5.7088   21.8871 N   0  0  0  0  0  0  0  0  0  0  0  0
    5.6516    3.5258   21.9140 C   0  0  0  0  0  0  0  0  0  0  0  0
   11.5863    9.6815   19.4539 C   0  0  0  0  0  0  0  0  0  0  0  0
   12.9648    4.1543   20.9205 C   0  0  0  0  0  0  0  0  0  0  0  0
    8.2089    3.6265   20.8929 C   0  0  0  0  0  0  0  0  0  0  0  0
    7.3827    2.5724   20.5432 C   0  0  0  0  0  0  0  0  0  0  0  0
   11.1529    7.2750   20.8025 C   0  0  0  0  0  0  0  0  0  0  0  0
   10.2573    8.3215   20.9827 C   0  0  0  0  0  0  0  0  0  0  0  0
   11.1606    5.9378   21.2366 N   0  0  0  0  0  0  0  0  0  0  0  0
    9.8932   11.6736   19.0677 O   0  0  0  0  0  0  0  0  0  0  0  0
    6.4470    4.5850   22.2321 C   0  0  0  0  0  0  0  0  0  0  0  0
    8.4619    6.9895   22.2968 C   0  0  0  0  0  0  0  0  0  0  0  0
   12.2747    7.5102   20.0420 C   0  0  0  0  0  0  0  0  0  0  0  0
   14.2544    6.2142   19.4191 C   0  0  0  0  0  0  0  0  0  0  0  0
   13.0695    6.3705   20.0375 N   0  0  0  0  0  0  0  0  0  0  0  0
    9.1913    8.0876   21.8361 N   0  0  0  0  0  0  0  0  0  0  0  0
   10.4739    9.4813   20.2889 C   0  0  0  0  0  0  0  0  0  0  0  0
    7.5551    7.1270   23.1200 O   0  0  0  0  0  0  0  0  0  0  0  0
  1 11  4  0
  1 21  4  0
  2  4  1  0
  2  8  1  0
  2 11  1  0
  3 10  4  0
  3 14  4  0
  4  5  1  0
  4 18  2  0
  6 12  1  0
  6 17  4  0
  6 23  4  0
  7  9  1  0
  7 13  4  0
  7 19  4  0
  9 20  1  0
 10 19  4  0
 11 25  4  0
 13 14  4  0
 15 16  4  0
 15 17  4  0
 15 21  4  0
 16 24  1  0
 16 25  4  0
 20 24  1  0
 20 26  2  0
 21 23  4  0
 22 23  1  0
M  END
$$$$

 Created by Python create_sdf_string function

 26 28  0  0  0  0  0  0  0  0999 V2000
   12.4616    8.6700   19.4180 N   0  0  0  0  0  0  0  0  0  0  0  0
   11.8329   10.8148   18.6769 N   0  0  0  0  0  0  0  0  0  0  0  0
    6.1021    2.5564   21.0678 C   0  0  0  0  0  0  0  0  0  0  0  0
   10.9097   11.8051   18.4804 C   0  0  0  0  0  0  0  0  0  0  0  0
   11.2280   12.9135   17.5669 C   0  0  0  0  0  0  0  0  0  0  0  0
   12.3782    5.4231   20.7777 C   0  0  0  0  0  0  0  0  0  0  0  0
    7.7365    4.6508   21.6987 C   0  0  0  0  0  0  0  0  0  0  0  0
   13.0186   11.0102   18.0020 C   0  0  0  0  0  0  0  0  0  0  0  0
    8.6628    5.7088   21.8871 N   0  0  0  0  0  0  0  0  0  0  0  0
    5.6516    3.5258   21.9140 C   0  0  0  0  0  0  0  0  0  0  0  0
   11.5863    9.6815   19.4539 C   0  0  0  0  0  0  0  0  0  0  0  0
   12.9648    4.1543   20.9205 C   0  0  0  0  0  0  0  0  0  0  0  0
    8.2089    3.6265   20.8929 C   0  0  0  0  0  0  0  0  0  0  0  0
    7.3827    2.5724   20.5432 C   0  0  0  0  0  0  0  0  0  0  0  0
   11.1529    7.2750   20.8025 C   0  0  0  0  0  0  0  0  0  0  0  0
   10.2573    8.3215   20.9827 C   0  0  0  0  0  0  0  0  0  0  0  0
   11.1606    5.9378   21.2366 N   0  0  0  0  0  0  0  0  0  0  0  0
    9.8932   11.6736   19.0677 O   0  0  0  0  0  0  0  0  0  0  0  0
    6.4470    4.5850   22.2321 C   0  0  0  0  0  0  0  0  0  0  0  0
    8.4619    6.9895   22.2968 C   0  0  0  0  0  0  0  0  0  0  0  0
   12.2747    7.5102   20.0420 C   0  0  0  0  0  0  0  0  0  0  0  0
   14.2544    6.2142   19.4191 C   0  0  0  0  0  0  0  0  0  0  0  0
   13.0695    6.3705   20.0375 N   0  0  0  0  0  0  0  0  0  0  0  0
    9.1913    8.0876   21.8361 N   0  0  0  0  0  0  0  0  0  0  0  0
   10.4739    9.4813   20.2889 C   0  0  0  0  0  0  0  0  0  0  0  0
    7.5551    7.1270   23.1200 O   0  0  0  0  0  0  0  0  0  0  0  0
  1 11  4  0
  1 21  4  0
  2  4  1  0
  2  8  1  0
  2 11  1  0
  3 10  4  0
  3 14  4  0
  4  5  1  0
  4 18  2  0
  6 12  1  0
  6 17  4  0
  6 23  4  0
  7  9  1  0
  7 13  4  0
  7 19  4  0
  9 20  1  0
 10 19  4  0
 11 25  4  0
 13 14  4  0
 15 16  4  0
 15 17  4  0
 15 21  4  0
 16 24  1  0
 16 25  4  0
 20 24  1  0
 20 26  2  0
 21 23  4  0
 22 23  1  0
M  END
$$$$

 Created by Python create_sdf_string function

 26 28  0  0  0  0  0  0  0  0999 V2000
   12.4616    8.6700   19.4180 N   0  0  0  0  0  0  0  0  0  0  0  0
   11.8329   10.8148   18.6769 N   0  0  0  0  0  0  0  0  0  0  0  0
    6.1021    2.5564   21.0678 C   0  0  0  0  0  0  0  0  0  0  0  0
   10.9097   11.8051   18.4804 C   0  0  0  0  0  0  0  0  0  0  0  0
   11.2280   12.9135   17.5669 C   0  0  0  0  0  0  0  0  0  0  0  0
   12.3782    5.4231   20.7777 C   0  0  0  0  0  0  0  0  0  0  0  0
    7.7365    4.6508   21.6987 C   0  0  0  0  0  0  0  0  0  0  0  0
   13.0186   11.0102   18.0020 C   0  0  0  0  0  0  0  0  0  0  0  0
    8.6628    5.7088   21.8871 N   0  0  0  0  0  0  0  0  0  0  0  0
    5.6516    3.5258   21.9140 C   0  0  0  0  0  0  0  0  0  0  0  0
   11.5863    9.6815   19.4539 C   0  0  0  0  0  0  0  0  0  0  0  0
   12.9648    4.1543   20.9205 C   0  0  0  0  0  0  0  0  0  0  0  0
    8.2089    3.6265   20.8929 C   0  0  0  0  0  0  0  0  0  0  0  0
    7.3827    2.5724   20.5432 C   0  0  0  0  0  0  0  0  0  0  0  0
   11.1529    7.2750   20.8025 C   0  0  0  0  0  0  0  0  0  0  0  0
   10.2573    8.3215   20.9827 C   0  0  0  0  0  0  0  0  0  0  0  0
   11.1606    5.9378   21.2366 N   0  0  0  0  0  0  0  0  0  0  0  0
    9.8932   11.6736   19.0677 O   0  0  0  0  0  0  0  0  0  0  0  0
    6.4470    4.5850   22.2321 C   0  0  0  0  0  0  0  0  0  0  0  0
    8.4619    6.9895   22.2968 C   0  0  0  0  0  0  0  0  0  0  0  0
   12.2747    7.5102   20.0420 C   0  0  0  0  0  0  0  0  0  0  0  0
   14.2544    6.2142   19.4191 C   0  0  0  0  0  0  0  0  0  0  0  0
   13.0695    6.3705   20.0375 N   0  0  0  0  0  0  0  0  0  0  0  0
    9.1913    8.0876   21.8361 N   0  0  0  0  0  0  0  0  0  0  0  0
   10.4739    9.4813   20.2889 C   0  0  0  0  0  0  0  0  0  0  0  0
    7.5551    7.1270   23.1200 O   0  0  0  0  0  0  0  0  0  0  0  0
  1 11  4  0
  1 21  4  0
  2  4  1  0
  2  8  1  0
  2 11  1  0
  3 10  4  0
  3 14  4  0
  4  5  1  0
  4 18  2  0
  6 12  1  0
  6 17  4  0
  6 23  4  0
  7  9  1  0
  7 13  4  0
  7 19  4  0
  9 20  1  0
 10 19  4  0
 11 25  4  0
 13 14  4  0
 15 16  4  0
 15 17  4  0
 15 21  4  0
 16 24  1  0
 16 25  4  0
 20 24  1  0
 20 26  2  0
 21 23  4  0
 22 23  1  0
M  END
$$$$

 Created by Python create_sdf_string function

 26 28  0  0  0  0  0  0  0  0999 V2000
   12.4616    8.6700   19.4180 N   0  0  0  0  0  0  0  0  0  0  0  0
   11.8329   10.8148   18.6769 N   0  0  0  0  0  0  0  0  0  0  0  0
    6.1021    2.5564   21.0678 C   0  0  0  0  0  0  0  0  0  0  0  0
   10.9097   11.8051   18.4804 C   0  0  0  0  0  0  0  0  0  0  0  0
   11.2280   12.9135   17.5669 C   0  0  0  0  0  0  0  0  0  0  0  0
   12.3782    5.4231   20.7777 C   0  0  0  0  0  0  0  0  0  0  0  0
    7.7365    4.6508   21.6987 C   0  0  0  0  0  0  0  0  0  0  0  0
   13.0186   11.0102   18.0020 C   0  0  0  0  0  0  0  0  0  0  0  0
    8.6628    5.7088   21.8871 N   0  0  0  0  0  0  0  0  0  0  0  0
    5.6516    3.5258   21.9140 C   0  0  0  0  0  0  0  0  0  0  0  0
   11.5863    9.6815   19.4539 C   0  0  0  0  0  0  0  0  0  0  0  0
   12.9648    4.1543   20.9205 C   0  0  0  0  0  0  0  0  0  0  0  0
    8.2089    3.6265   20.8929 C   0  0  0  0  0  0  0  0  0  0  0  0
    7.3827    2.5724   20.5432 C   0  0  0  0  0  0  0  0  0  0  0  0
   11.1529    7.2750   20.8025 C   0  0  0  0  0  0  0  0  0  0  0  0
   10.2573    8.3215   20.9827 C   0  0  0  0  0  0  0  0  0  0  0  0
   11.1606    5.9378   21.2366 N   0  0  0  0  0  0  0  0  0  0  0  0
    9.8932   11.6736   19.0677 O   0  0  0  0  0  0  0  0  0  0  0  0
    6.4470    4.5850   22.2321 C   0  0  0  0  0  0  0  0  0  0  0  0
    8.4619    6.9895   22.2968 C   0  0  0  0  0  0  0  0  0  0  0  0
   12.2747    7.5102   20.0420 C   0  0  0  0  0  0  0  0  0  0  0  0
   14.2544    6.2142   19.4191 C   0  0  0  0  0  0  0  0  0  0  0  0
   13.0695    6.3705   20.0375 N   0  0  0  0  0  0  0  0  0  0  0  0
    9.1913    8.0876   21.8361 N   0  0  0  0  0  0  0  0  0  0  0  0
   10.4739    9.4813   20.2889 C   0  0  0  0  0  0  0  0  0  0  0  0
    7.5551    7.1270   23.1200 O   0  0  0  0  0  0  0  0  0  0  0  0
  1 11  4  0
  1 21  4  0
  2  4  1  0
  2  8  1  0
  2 11  1  0
  3 10  4  0
  3 14  4  0
  4  5  1  0
  4 18  2  0
  6 12  1  0
  6 17  4  0
  6 23  4  0
  7  9  1  0
  7 13  4  0
  7 19  4  0
  9 20  1  0
 10 19  4  0
 11 25  4  0
 13 14  4  0
 15 16  4  0
 15 17  4  0
 15 21  4  0
 16 24  1  0
 16 25  4  0
 20 24  1  0
 20 26  2  0
 21 23  4  0
 22 23  1  0
M  END
$$$$

 Created by Python create_sdf_string function

 26 28  0  0  0  0  0  0  0  0999 V2000
   12.4616    8.6700   19.4180 N   0  0  0  0  0  0  0  0  0  0  0  0
   11.8329   10.8148   18.6769 N   0  0  0  0  0  0  0  0  0  0  0  0
    6.1021    2.5564   21.0678 C   0  0  0  0  0  0  0  0  0  0  0  0
   10.9097   11.8051   18.4804 C   0  0  0  0  0  0  0  0  0  0  0  0
   11.2280   12.9135   17.5669 C   0  0  0  0  0  0  0  0  0  0  0  0
   12.3782    5.4231   20.7777 C   0  0  0  0  0  0  0  0  0  0  0  0
    7.7365    4.6508   21.6987 C   0  0  0  0  0  0  0  0  0  0  0  0
   13.0186   11.0102   18.0020 C   0  0  0  0  0  0  0  0  0  0  0  0
    8.6628    5.7088   21.8871 N   0  0  0  0  0  0  0  0  0  0  0  0
    5.6516    3.5258   21.9140 C   0  0  0  0  0  0  0  0  0  0  0  0
   11.5863    9.6815   19.4539 C   0  0  0  0  0  0  0  0  0  0  0  0
   12.9648    4.1543   20.9205 C   0  0  0  0  0  0  0  0  0  0  0  0
    8.2089    3.6265   20.8929 C   0  0  0  0  0  0  0  0  0  0  0  0
    7.3827    2.5724   20.5432 C   0  0  0  0  0  0  0  0  0  0  0  0
   11.1529    7.2750   20.8025 C   0  0  0  0  0  0  0  0  0  0  0  0
   10.2573    8.3215   20.9827 C   0  0  0  0  0  0  0  0  0  0  0  0
   11.1606    5.9378   21.2366 N   0  0  0  0  0  0  0  0  0  0  0  0
    9.8932   11.6736   19.0677 O   0  0  0  0  0  0  0  0  0  0  0  0
    6.4470    4.5850   22.2321 C   0  0  0  0  0  0  0  0  0  0  0  0
    8.4619    6.9895   22.2968 C   0  0  0  0  0  0  0  0  0  0  0  0
   12.2747    7.5102   20.0420 C   0  0  0  0  0  0  0  0  0  0  0  0
   14.2544    6.2142   19.4191 C   0  0  0  0  0  0  0  0  0  0  0  0
   13.0695    6.3705   20.0375 N   0  0  0  0  0  0  0  0  0  0  0  0
    9.1913    8.0876   21.8361 N   0  0  0  0  0  0  0  0  0  0  0  0
   10.4739    9.4813   20.2889 C   0  0  0  0  0  0  0  0  0  0  0  0
    7.5551    7.1270   23.1200 O   0  0  0  0  0  0  0  0  0  0  0  0
  1 11  4  0
  1 21  4  0
  2  4  1  0
  2  8  1  0
  2 11  1  0
  3 10  4  0
  3 14  4  0
  4  5  1  0
  4 18  2  0
  6 12  1  0
  6 17  4  0
  6 23  4  0
  7  9  1  0
  7 13  4  0
  7 19  4  0
  9 20  1  0
 10 19  4  0
 11 25  4  0
 13 14  4  0
 15 16  4  0
 15 17  4  0
 15 21  4  0
 16 24  1  0
 16 25  4  0
 20 24  1  0
 20 26  2  0
 21 23  4  0
 22 23  1  0
M  END
$$$$

 Created by Python create_sdf_string function

 26 28  0  0  0  0  0  0  0  0999 V2000
   12.4616    8.6700   19.4180 N   0  0  0  0  0  0  0  0  0  0  0  0
   11.8329   10.8148   18.6769 N   0  0  0  0  0  0  0  0  0  0  0  0
    6.1021    2.5564   21.0678 C   0  0  0  0  0  0  0  0  0  0  0  0
   10.9097   11.8051   18.4804 C   0  0  0  0  0  0  0  0  0  0  0  0
   11.2280   12.9135   17.5669 C   0  0  0  0  0  0  0  0  0  0  0  0
   12.3782    5.4231   20.7777 C   0  0  0  0  0  0  0  0  0  0  0  0
    7.7365    4.6508   21.6987 C   0  0  0  0  0  0  0  0  0  0  0  0
   13.0186   11.0102   18.0020 C   0  0  0  0  0  0  0  0  0  0  0  0
    8.6628    5.7088   21.8871 N   0  0  0  0  0  0  0  0  0  0  0  0
    5.6516    3.5258   21.9140 C   0  0  0  0  0  0  0  0  0  0  0  0
   11.5863    9.6815   19.4539 C   0  0  0  0  0  0  0  0  0  0  0  0
   12.9648    4.1543   20.9205 C   0  0  0  0  0  0  0  0  0  0  0  0
    8.2089    3.6265   20.8929 C   0  0  0  0  0  0  0  0  0  0  0  0
    7.3827    2.5724   20.5432 C   0  0  0  0  0  0  0  0  0  0  0  0
   11.1529    7.2750   20.8025 C   0  0  0  0  0  0  0  0  0  0  0  0
   10.2573    8.3215   20.9827 C   0  0  0  0  0  0  0  0  0  0  0  0
   11.1606    5.9378   21.2366 N   0  0  0  0  0  0  0  0  0  0  0  0
    9.8932   11.6736   19.0677 O   0  0  0  0  0  0  0  0  0  0  0  0
    6.4470    4.5850   22.2321 C   0  0  0  0  0  0  0  0  0  0  0  0
    8.4619    6.9895   22.2968 C   0  0  0  0  0  0  0  0  0  0  0  0
   12.2747    7.5102   20.0420 C   0  0  0  0  0  0  0  0  0  0  0  0
   14.2544    6.2142   19.4191 C   0  0  0  0  0  0  0  0  0  0  0  0
   13.0695    6.3705   20.0375 N   0  0  0  0  0  0  0  0  0  0  0  0
    9.1913    8.0876   21.8361 N   0  0  0  0  0  0  0  0  0  0  0  0
   10.4739    9.4813   20.2889 C   0  0  0  0  0  0  0  0  0  0  0  0
    7.5551    7.1270   23.1200 O   0  0  0  0  0  0  0  0  0  0  0  0
  1 11  4  0
  1 21  4  0
  2  4  1  0
  2  8  1  0
  2 11  1  0
  3 10  4  0
  3 14  4  0
  4  5  1  0
  4 18  2  0
  6 12  1  0
  6 17  4  0
  6 23  4  0
  7  9  1  0
  7 13  4  0
  7 19  4  0
  9 20  1  0
 10 19  4  0
 11 25  4  0
 13 14  4  0
 15 16  4  0
 15 17  4  0
 15 21  4  0
 16 24  1  0
 16 25  4  0
 20 24  1  0
 20 26  2  0
 21 23  4  0
 22 23  1  0
M  END
$$$$

 Created by Python create_sdf_string function

 26 28  0  0  0  0  0  0  0  0999 V2000
   12.4616    8.6700   19.4180 N   0  0  0  0  0  0  0  0  0  0  0  0
   11.8329   10.8148   18.6769 N   0  0  0  0  0  0  0  0  0  0  0  0
    6.1021    2.5564   21.0678 C   0  0  0  0  0  0  0  0  0  0  0  0
   10.9097   11.8051   18.4804 C   0  0  0  0  0  0  0  0  0  0  0  0
   11.2280   12.9135   17.5669 C   0  0  0  0  0  0  0  0  0  0  0  0
   12.3782    5.4231   20.7777 C   0  0  0  0  0  0  0  0  0  0  0  0
    7.7365    4.6508   21.6987 C   0  0  0  0  0  0  0  0  0  0  0  0
   13.0186   11.0102   18.0020 C   0  0  0  0  0  0  0  0  0  0  0  0
    8.6628    5.7088   21.8871 N   0  0  0  0  0  0  0  0  0  0  0  0
    5.6516    3.5258   21.9140 C   0  0  0  0  0  0  0  0  0  0  0  0
   11.5863    9.6815   19.4539 C   0  0  0  0  0  0  0  0  0  0  0  0
   12.9648    4.1543   20.9205 C   0  0  0  0  0  0  0  0  0  0  0  0
    8.2089    3.6265   20.8929 C   0  0  0  0  0  0  0  0  0  0  0  0
    7.3827    2.5724   20.5432 C   0  0  0  0  0  0  0  0  0  0  0  0
   11.1529    7.2750   20.8025 C   0  0  0  0  0  0  0  0  0  0  0  0
   10.2573    8.3215   20.9827 C   0  0  0  0  0  0  0  0  0  0  0  0
   11.1606    5.9378   21.2366 N   0  0  0  0  0  0  0  0  0  0  0  0
    9.8932   11.6736   19.0677 O   0  0  0  0  0  0  0  0  0  0  0  0
    6.4470    4.5850   22.2321 C   0  0  0  0  0  0  0  0  0  0  0  0
    8.4619    6.9895   22.2968 C   0  0  0  0  0  0  0  0  0  0  0  0
   12.2747    7.5102   20.0420 C   0  0  0  0  0  0  0  0  0  0  0  0
   14.2544    6.2142   19.4191 C   0  0  0  0  0  0  0  0  0  0  0  0
   13.0695    6.3705   20.0375 N   0  0  0  0  0  0  0  0  0  0  0  0
    9.1913    8.0876   21.8361 N   0  0  0  0  0  0  0  0  0  0  0  0
   10.4739    9.4813   20.2889 C   0  0  0  0  0  0  0  0  0  0  0  0
    7.5551    7.1270   23.1200 O   0  0  0  0  0  0  0  0  0  0  0  0
  1 11  4  0
  1 21  4  0
  2  4  1  0
  2  8  1  0
  2 11  1  0
  3 10  4  0
  3 14  4  0
  4  5  1  0
  4 18  2  0
  6 12  1  0
  6 17  4  0
  6 23  4  0
  7  9  1  0
  7 13  4  0
  7 19  4  0
  9 20  1  0
 10 19  4  0
 11 25  4  0
 13 14  4  0
 15 16  4  0
 15 17  4  0
 15 21  4  0
 16 24  1  0
 16 25  4  0
 20 24  1  0
 20 26  2  0
 21 23  4  0
 22 23  1  0
M  END
$$$$

 Created by Python create_sdf_string function

 26 28  0  0  0  0  0  0  0  0999 V2000
   12.4616    8.6700   19.4180 N   0  0  0  0  0  0  0  0  0  0  0  0
   11.8329   10.8148   18.6769 N   0  0  0  0  0  0  0  0  0  0  0  0
    6.1021    2.5564   21.0678 C   0  0  0  0  0  0  0  0  0  0  0  0
   10.9097   11.8051   18.4804 C   0  0  0  0  0  0  0  0  0  0  0  0
   11.2280   12.9135   17.5669 C   0  0  0  0  0  0  0  0  0  0  0  0
   12.3782    5.4231   20.7777 C   0  0  0  0  0  0  0  0  0  0  0  0
    7.7365    4.6508   21.6987 C   0  0  0  0  0  0  0  0  0  0  0  0
   13.0186   11.0102   18.0020 C   0  0  0  0  0  0  0  0  0  0  0  0
    8.6628    5.7088   21.8871 N   0  0  0  0  0  0  0  0  0  0  0  0
    5.6516    3.5258   21.9140 C   0  0  0  0  0  0  0  0  0  0  0  0
   11.5863    9.6815   19.4539 C   0  0  0  0  0  0  0  0  0  0  0  0
   12.9648    4.1543   20.9205 C   0  0  0  0  0  0  0  0  0  0  0  0
    8.2089    3.6265   20.8929 C   0  0  0  0  0  0  0  0  0  0  0  0
    7.3827    2.5724   20.5432 C   0  0  0  0  0  0  0  0  0  0  0  0
   11.1529    7.2750   20.8025 C   0  0  0  0  0  0  0  0  0  0  0  0
   10.2573    8.3215   20.9827 C   0  0  0  0  0  0  0  0  0  0  0  0
   11.1606    5.9378   21.2366 N   0  0  0  0  0  0  0  0  0  0  0  0
    9.8932   11.6736   19.0677 O   0  0  0  0  0  0  0  0  0  0  0  0
    6.4470    4.5850   22.2321 C   0  0  0  0  0  0  0  0  0  0  0  0
    8.4619    6.9895   22.2968 C   0  0  0  0  0  0  0  0  0  0  0  0
   12.2747    7.5102   20.0420 C   0  0  0  0  0  0  0  0  0  0  0  0
   14.2544    6.2142   19.4191 C   0  0  0  0  0  0  0  0  0  0  0  0
   13.0695    6.3705   20.0375 N   0  0  0  0  0  0  0  0  0  0  0  0
    9.1913    8.0876   21.8361 N   0  0  0  0  0  0  0  0  0  0  0  0
   10.4739    9.4813   20.2889 C   0  0  0  0  0  0  0  0  0  0  0  0
    7.5551    7.1270   23.1200 O   0  0  0  0  0  0  0  0  0  0  0  0
  1 11  4  0
  1 21  4  0
  2  4  1  0
  2  8  1  0
  2 11  1  0
  3 10  4  0
  3 14  4  0
  4  5  1  0
  4 18  2  0
  6 12  1  0
  6 17  4  0
  6 23  4  0
  7  9  1  0
  7 13  4  0
  7 19  4  0
  9 20  1  0
 10 19  4  0
 11 25  4  0
 13 14  4  0
 15 16  4  0
 15 17  4  0
 15 21  4  0
 16 24  1  0
 16 25  4  0
 20 24  1  0
 20 26  2  0
 21 23  4  0
 22 23  1  0
M  END
$$$$

 Created by Python create_sdf_string function

 26 28  0  0  0  0  0  0  0  0999 V2000
   12.4616    8.6700   19.4180 N   0  0  0  0  0  0  0  0  0  0  0  0
   11.8329   10.8148   18.6769 N   0  0  0  0  0  0  0  0  0  0  0  0
    6.1021    2.5564   21.0678 C   0  0  0  0  0  0  0  0  0  0  0  0
   10.9097   11.8051   18.4804 C   0  0  0  0  0  0  0  0  0  0  0  0
   11.2280   12.9135   17.5669 C   0  0  0  0  0  0  0  0  0  0  0  0
   12.3782    5.4231   20.7777 C   0  0  0  0  0  0  0  0  0  0  0  0
    7.7365    4.6508   21.6987 C   0  0  0  0  0  0  0  0  0  0  0  0
   13.0186   11.0102   18.0020 C   0  0  0  0  0  0  0  0  0  0  0  0
    8.6628    5.7088   21.8871 N   0  0  0  0  0  0  0  0  0  0  0  0
    5.6516    3.5258   21.9140 C   0  0  0  0  0  0  0  0  0  0  0  0
   11.5863    9.6815   19.4539 C   0  0  0  0  0  0  0  0  0  0  0  0
   12.9648    4.1543   20.9205 C   0  0  0  0  0  0  0  0  0  0  0  0
    8.2089    3.6265   20.8929 C   0  0  0  0  0  0  0  0  0  0  0  0
    7.3827    2.5724   20.5432 C   0  0  0  0  0  0  0  0  0  0  0  0
   11.1529    7.2750   20.8025 C   0  0  0  0  0  0  0  0  0  0  0  0
   10.2573    8.3215   20.9827 C   0  0  0  0  0  0  0  0  0  0  0  0
   11.1606    5.9378   21.2366 N   0  0  0  0  0  0  0  0  0  0  0  0
    9.8932   11.6736   19.0677 O   0  0  0  0  0  0  0  0  0  0  0  0
    6.4470    4.5850   22.2321 C   0  0  0  0  0  0  0  0  0  0  0  0
    8.4619    6.9895   22.2968 C   0  0  0  0  0  0  0  0  0  0  0  0
   12.2747    7.5102   20.0420 C   0  0  0  0  0  0  0  0  0  0  0  0
   14.2544    6.2142   19.4191 C   0  0  0  0  0  0  0  0  0  0  0  0
   13.0695    6.3705   20.0375 N   0  0  0  0  0  0  0  0  0  0  0  0
    9.1913    8.0876   21.8361 N   0  0  0  0  0  0  0  0  0  0  0  0
   10.4739    9.4813   20.2889 C   0  0  0  0  0  0  0  0  0  0  0  0
    7.5551    7.1270   23.1200 O   0  0  0  0  0  0  0  0  0  0  0  0
  1 11  4  0
  1 21  4  0
  2  4  1  0
  2  8  1  0
  2 11  1  0
  3 10  4  0
  3 14  4  0
  4  5  1  0
  4 18  2  0
  6 12  1  0
  6 17  4  0
  6 23  4  0
  7  9  1  0
  7 13  4  0
  7 19  4  0
  9 20  1  0
 10 19  4  0
 11 25  4  0
 13 14  4  0
 15 16  4  0
 15 17  4  0
 15 21  4  0
 16 24  1  0
 16 25  4  0
 20 24  1  0
 20 26  2  0
 21 23  4  0
 22 23  1  0
M  END
$$$$

 Created by Python create_sdf_string function

 26 28  0  0  0  0  0  0  0  0999 V2000
   12.4616    8.6700   19.4180 N   0  0  0  0  0  0  0  0  0  0  0  0
   11.8329   10.8148   18.6769 N   0  0  0  0  0  0  0  0  0  0  0  0
    6.1021    2.5564   21.0678 C   0  0  0  0  0  0  0  0  0  0  0  0
   10.9097   11.8051   18.4804 C   0  0  0  0  0  0  0  0  0  0  0  0
   11.2280   12.9135   17.5669 C   0  0  0  0  0  0  0  0  0  0  0  0
   12.3782    5.4231   20.7777 C   0  0  0  0  0  0  0  0  0  0  0  0
    7.7365    4.6508   21.6987 C   0  0  0  0  0  0  0  0  0  0  0  0
   13.0186   11.0102   18.0020 C   0  0  0  0  0  0  0  0  0  0  0  0
    8.6628    5.7088   21.8871 N   0  0  0  0  0  0  0  0  0  0  0  0
    5.6516    3.5258   21.9140 C   0  0  0  0  0  0  0  0  0  0  0  0
   11.5863    9.6815   19.4539 C   0  0  0  0  0  0  0  0  0  0  0  0
   12.9648    4.1543   20.9205 C   0  0  0  0  0  0  0  0  0  0  0  0
    8.2089    3.6265   20.8929 C   0  0  0  0  0  0  0  0  0  0  0  0
    7.3827    2.5724   20.5432 C   0  0  0  0  0  0  0  0  0  0  0  0
   11.1529    7.2750   20.8025 C   0  0  0  0  0  0  0  0  0  0  0  0
   10.2573    8.3215   20.9827 C   0  0  0  0  0  0  0  0  0  0  0  0
   11.1606    5.9378   21.2366 N   0  0  0  0  0  0  0  0  0  0  0  0
    9.8932   11.6736   19.0677 O   0  0  0  0  0  0  0  0  0  0  0  0
    6.4470    4.5850   22.2321 C   0  0  0  0  0  0  0  0  0  0  0  0
    8.4619    6.9895   22.2968 C   0  0  0  0  0  0  0  0  0  0  0  0
   12.2747    7.5102   20.0420 C   0  0  0  0  0  0  0  0  0  0  0  0
   14.2544    6.2142   19.4191 C   0  0  0  0  0  0  0  0  0  0  0  0
   13.0695    6.3705   20.0375 N   0  0  0  0  0  0  0  0  0  0  0  0
    9.1913    8.0876   21.8361 N   0  0  0  0  0  0  0  0  0  0  0  0
   10.4739    9.4813   20.2889 C   0  0  0  0  0  0  0  0  0  0  0  0
    7.5551    7.1270   23.1200 O   0  0  0  0  0  0  0  0  0  0  0  0
  1 11  4  0
  1 21  4  0
  2  4  1  0
  2  8  1  0
  2 11  1  0
  3 10  4  0
  3 14  4  0
  4  5  1  0
  4 18  2  0
  6 12  1  0
  6 17  4  0
  6 23  4  0
  7  9  1  0
  7 13  4  0
  7 19  4  0
  9 20  1  0
 10 19  4  0
 11 25  4  0
 13 14  4  0
 15 16  4  0
 15 17  4  0
 15 21  4  0
 16 24  1  0
 16 25  4  0
 20 24  1  0
 20 26  2  0
 21 23  4  0
 22 23  1  0
M  END
$$$$

 Created by Python create_sdf_string function

 26 28  0  0  0  0  0  0  0  0999 V2000
   12.4616    8.6700   19.4180 N   0  0  0  0  0  0  0  0  0  0  0  0
   11.8329   10.8148   18.6769 N   0  0  0  0  0  0  0  0  0  0  0  0
    6.1021    2.5564   21.0678 C   0  0  0  0  0  0  0  0  0  0  0  0
   10.9097   11.8051   18.4804 C   0  0  0  0  0  0  0  0  0  0  0  0
   11.2280   12.9135   17.5669 C   0  0  0  0  0  0  0  0  0  0  0  0
   12.3782    5.4231   20.7777 C   0  0  0  0  0  0  0  0  0  0  0  0
    7.7365    4.6508   21.6987 C   0  0  0  0  0  0  0  0  0  0  0  0
   13.0186   11.0102   18.0020 C   0  0  0  0  0  0  0  0  0  0  0  0
    8.6628    5.7088   21.8871 N   0  0  0  0  0  0  0  0  0  0  0  0
    5.6516    3.5258   21.9140 C   0  0  0  0  0  0  0  0  0  0  0  0
   11.5863    9.6815   19.4539 C   0  0  0  0  0  0  0  0  0  0  0  0
   12.9648    4.1543   20.9205 C   0  0  0  0  0  0  0  0  0  0  0  0
    8.2089    3.6265   20.8929 C   0  0  0  0  0  0  0  0  0  0  0  0
    7.3827    2.5724   20.5432 C   0  0  0  0  0  0  0  0  0  0  0  0
   11.1529    7.2750   20.8025 C   0  0  0  0  0  0  0  0  0  0  0  0
   10.2573    8.3215   20.9827 C   0  0  0  0  0  0  0  0  0  0  0  0
   11.1606    5.9378   21.2366 N   0  0  0  0  0  0  0  0  0  0  0  0
    9.8932   11.6736   19.0677 O   0  0  0  0  0  0  0  0  0  0  0  0
    6.4470    4.5850   22.2321 C   0  0  0  0  0  0  0  0  0  0  0  0
    8.4619    6.9895   22.2968 C   0  0  0  0  0  0  0  0  0  0  0  0
   12.2747    7.5102   20.0420 C   0  0  0  0  0  0  0  0  0  0  0  0
   14.2544    6.2142   19.4191 C   0  0  0  0  0  0  0  0  0  0  0  0
   13.0695    6.3705   20.0375 N   0  0  0  0  0  0  0  0  0  0  0  0
    9.1913    8.0876   21.8361 N   0  0  0  0  0  0  0  0  0  0  0  0
   10.4739    9.4813   20.2889 C   0  0  0  0  0  0  0  0  0  0  0  0
    7.5551    7.1270   23.1200 O   0  0  0  0  0  0  0  0  0  0  0  0
  1 11  4  0
  1 21  4  0
  2  4  1  0
  2  8  1  0
  2 11  1  0
  3 10  4  0
  3 14  4  0
  4  5  1  0
  4 18  2  0
  6 12  1  0
  6 17  4  0
  6 23  4  0
  7  9  1  0
  7 13  4  0
  7 19  4  0
  9 20  1  0
 10 19  4  0
 11 25  4  0
 13 14  4  0
 15 16  4  0
 15 17  4  0
 15 21  4  0
 16 24  1  0
 16 25  4  0
 20 24  1  0
 20 26  2  0
 21 23  4  0
 22 23  1  0
M  END
$$$$

 Created by Python create_sdf_string function

 26 28  0  0  0  0  0  0  0  0999 V2000
   12.4616    8.6700   19.4180 N   0  0  0  0  0  0  0  0  0  0  0  0
   11.8329   10.8148   18.6769 N   0  0  0  0  0  0  0  0  0  0  0  0
    6.1021    2.5564   21.0678 C   0  0  0  0  0  0  0  0  0  0  0  0
   10.9097   11.8051   18.4804 C   0  0  0  0  0  0  0  0  0  0  0  0
   11.2280   12.9135   17.5669 C   0  0  0  0  0  0  0  0  0  0  0  0
   12.3782    5.4231   20.7777 C   0  0  0  0  0  0  0  0  0  0  0  0
    7.7365    4.6508   21.6987 C   0  0  0  0  0  0  0  0  0  0  0  0
   13.0186   11.0102   18.0020 C   0  0  0  0  0  0  0  0  0  0  0  0
    8.6628    5.7088   21.8871 N   0  0  0  0  0  0  0  0  0  0  0  0
    5.6516    3.5258   21.9140 C   0  0  0  0  0  0  0  0  0  0  0  0
   11.5863    9.6815   19.4539 C   0  0  0  0  0  0  0  0  0  0  0  0
   12.9648    4.1543   20.9205 C   0  0  0  0  0  0  0  0  0  0  0  0
    8.2089    3.6265   20.8929 C   0  0  0  0  0  0  0  0  0  0  0  0
    7.3827    2.5724   20.5432 C   0  0  0  0  0  0  0  0  0  0  0  0
   11.1529    7.2750   20.8025 C   0  0  0  0  0  0  0  0  0  0  0  0
   10.2573    8.3215   20.9827 C   0  0  0  0  0  0  0  0  0  0  0  0
   11.1606    5.9378   21.2366 N   0  0  0  0  0  0  0  0  0  0  0  0
    9.8932   11.6736   19.0677 O   0  0  0  0  0  0  0  0  0  0  0  0
    6.4470    4.5850   22.2321 C   0  0  0  0  0  0  0  0  0  0  0  0
    8.4619    6.9895   22.2968 C   0  0  0  0  0  0  0  0  0  0  0  0
   12.2747    7.5102   20.0420 C   0  0  0  0  0  0  0  0  0  0  0  0
   14.2544    6.2142   19.4191 C   0  0  0  0  0  0  0  0  0  0  0  0
   13.0695    6.3705   20.0375 N   0  0  0  0  0  0  0  0  0  0  0  0
    9.1913    8.0876   21.8361 N   0  0  0  0  0  0  0  0  0  0  0  0
   10.4739    9.4813   20.2889 C   0  0  0  0  0  0  0  0  0  0  0  0
    7.5551    7.1270   23.1200 O   0  0  0  0  0  0  0  0  0  0  0  0
  1 11  4  0
  1 21  4  0
  2  4  1  0
  2  8  1  0
  2 11  1  0
  3 10  4  0
  3 14  4  0
  4  5  1  0
  4 18  2  0
  6 12  1  0
  6 17  4  0
  6 23  4  0
  7  9  1  0
  7 13  4  0
  7 19  4  0
  9 20  1  0
 10 19  4  0
 11 25  4  0
 13 14  4  0
 15 16  4  0
 15 17  4  0
 15 21  4  0
 16 24  1  0
 16 25  4  0
 20 24  1  0
 20 26  2  0
 21 23  4  0
 22 23  1  0
M  END
$$$$

 Created by Python create_sdf_string function

 26 28  0  0  0  0  0  0  0  0999 V2000
   12.4616    8.6700   19.4180 N   0  0  0  0  0  0  0  0  0  0  0  0
   11.8329   10.8148   18.6769 N   0  0  0  0  0  0  0  0  0  0  0  0
    6.1021    2.5564   21.0678 C   0  0  0  0  0  0  0  0  0  0  0  0
   10.9097   11.8051   18.4804 C   0  0  0  0  0  0  0  0  0  0  0  0
   11.2280   12.9135   17.5669 C   0  0  0  0  0  0  0  0  0  0  0  0
   12.3782    5.4231   20.7777 C   0  0  0  0  0  0  0  0  0  0  0  0
    7.7365    4.6508   21.6987 C   0  0  0  0  0  0  0  0  0  0  0  0
   13.0186   11.0102   18.0020 C   0  0  0  0  0  0  0  0  0  0  0  0
    8.6628    5.7088   21.8871 N   0  0  0  0  0  0  0  0  0  0  0  0
    5.6516    3.5258   21.9140 C   0  0  0  0  0  0  0  0  0  0  0  0
   11.5863    9.6815   19.4539 C   0  0  0  0  0  0  0  0  0  0  0  0
   12.9648    4.1543   20.9205 C   0  0  0  0  0  0  0  0  0  0  0  0
    8.2089    3.6265   20.8929 C   0  0  0  0  0  0  0  0  0  0  0  0
    7.3827    2.5724   20.5432 C   0  0  0  0  0  0  0  0  0  0  0  0
   11.1529    7.2750   20.8025 C   0  0  0  0  0  0  0  0  0  0  0  0
   10.2573    8.3215   20.9827 C   0  0  0  0  0  0  0  0  0  0  0  0
   11.1606    5.9378   21.2366 N   0  0  0  0  0  0  0  0  0  0  0  0
    9.8932   11.6736   19.0677 O   0  0  0  0  0  0  0  0  0  0  0  0
    6.4470    4.5850   22.2321 C   0  0  0  0  0  0  0  0  0  0  0  0
    8.4619    6.9895   22.2968 C   0  0  0  0  0  0  0  0  0  0  0  0
   12.2747    7.5102   20.0420 C   0  0  0  0  0  0  0  0  0  0  0  0
   14.2544    6.2142   19.4191 C   0  0  0  0  0  0  0  0  0  0  0  0
   13.0695    6.3705   20.0375 N   0  0  0  0  0  0  0  0  0  0  0  0
    9.1913    8.0876   21.8361 N   0  0  0  0  0  0  0  0  0  0  0  0
   10.4739    9.4813   20.2889 C   0  0  0  0  0  0  0  0  0  0  0  0
    7.5551    7.1270   23.1200 O   0  0  0  0  0  0  0  0  0  0  0  0
  1 11  4  0
  1 21  4  0
  2  4  1  0
  2  8  1  0
  2 11  1  0
  3 10  4  0
  3 14  4  0
  4  5  1  0
  4 18  2  0
  6 12  1  0
  6 17  4  0
  6 23  4  0
  7  9  1  0
  7 13  4  0
  7 19  4  0
  9 20  1  0
 10 19  4  0
 11 25  4  0
 13 14  4  0
 15 16  4  0
 15 17  4  0
 15 21  4  0
 16 24  1  0
 16 25  4  0
 20 24  1  0
 20 26  2  0
 21 23  4  0
 22 23  1  0
M  END
$$$$

 Created by Python create_sdf_string function

 26 28  0  0  0  0  0  0  0  0999 V2000
   12.4616    8.6700   19.4180 N   0  0  0  0  0  0  0  0  0  0  0  0
   11.8329   10.8148   18.6769 N   0  0  0  0  0  0  0  0  0  0  0  0
    6.1021    2.5564   21.0678 C   0  0  0  0  0  0  0  0  0  0  0  0
   10.9097   11.8051   18.4804 C   0  0  0  0  0  0  0  0  0  0  0  0
   11.2280   12.9135   17.5669 C   0  0  0  0  0  0  0  0  0  0  0  0
   12.3782    5.4231   20.7777 C   0  0  0  0  0  0  0  0  0  0  0  0
    7.7365    4.6508   21.6987 C   0  0  0  0  0  0  0  0  0  0  0  0
   13.0186   11.0102   18.0020 C   0  0  0  0  0  0  0  0  0  0  0  0
    8.6628    5.7088   21.8871 N   0  0  0  0  0  0  0  0  0  0  0  0
    5.6516    3.5258   21.9140 C   0  0  0  0  0  0  0  0  0  0  0  0
   11.5863    9.6815   19.4539 C   0  0  0  0  0  0  0  0  0  0  0  0
   12.9648    4.1543   20.9205 C   0  0  0  0  0  0  0  0  0  0  0  0
    8.2089    3.6265   20.8929 C   0  0  0  0  0  0  0  0  0  0  0  0
    7.3827    2.5724   20.5432 C   0  0  0  0  0  0  0  0  0  0  0  0
   11.1529    7.2750   20.8025 C   0  0  0  0  0  0  0  0  0  0  0  0
   10.2573    8.3215   20.9827 C   0  0  0  0  0  0  0  0  0  0  0  0
   11.1606    5.9378   21.2366 N   0  0  0  0  0  0  0  0  0  0  0  0
    9.8932   11.6736   19.0677 O   0  0  0  0  0  0  0  0  0  0  0  0
    6.4470    4.5850   22.2321 C   0  0  0  0  0  0  0  0  0  0  0  0
    8.4619    6.9895   22.2968 C   0  0  0  0  0  0  0  0  0  0  0  0
   12.2747    7.5102   20.0420 C   0  0  0  0  0  0  0  0  0  0  0  0
   14.2544    6.2142   19.4191 C   0  0  0  0  0  0  0  0  0  0  0  0
   13.0695    6.3705   20.0375 N   0  0  0  0  0  0  0  0  0  0  0  0
    9.1913    8.0876   21.8361 N   0  0  0  0  0  0  0  0  0  0  0  0
   10.4739    9.4813   20.2889 C   0  0  0  0  0  0  0  0  0  0  0  0
    7.5551    7.1270   23.1200 O   0  0  0  0  0  0  0  0  0  0  0  0
  1 11  4  0
  1 21  4  0
  2  4  1  0
  2  8  1  0
  2 11  1  0
  3 10  4  0
  3 14  4  0
  4  5  1  0
  4 18  2  0
  6 12  1  0
  6 17  4  0
  6 23  4  0
  7  9  1  0
  7 13  4  0
  7 19  4  0
  9 20  1  0
 10 19  4  0
 11 25  4  0
 13 14  4  0
 15 16  4  0
 15 17  4  0
 15 21  4  0
 16 24  1  0
 16 25  4  0
 20 24  1  0
 20 26  2  0
 21 23  4  0
 22 23  1  0
M  END
$$$$

 Created by Python create_sdf_string function

 26 28  0  0  0  0  0  0  0  0999 V2000
   12.4616    8.6700   19.4180 N   0  0  0  0  0  0  0  0  0  0  0  0
   11.8329   10.8148   18.6769 N   0  0  0  0  0  0  0  0  0  0  0  0
    6.1021    2.5564   21.0678 C   0  0  0  0  0  0  0  0  0  0  0  0
   10.9097   11.8051   18.4804 C   0  0  0  0  0  0  0  0  0  0  0  0
   11.2280   12.9135   17.5669 C   0  0  0  0  0  0  0  0  0  0  0  0
   12.3782    5.4231   20.7777 C   0  0  0  0  0  0  0  0  0  0  0  0
    7.7365    4.6508   21.6987 C   0  0  0  0  0  0  0  0  0  0  0  0
   13.0186   11.0102   18.0020 C   0  0  0  0  0  0  0  0  0  0  0  0
    8.6628    5.7088   21.8871 N   0  0  0  0  0  0  0  0  0  0  0  0
    5.6516    3.5258   21.9140 C   0  0  0  0  0  0  0  0  0  0  0  0
   11.5863    9.6815   19.4539 C   0  0  0  0  0  0  0  0  0  0  0  0
   12.9648    4.1543   20.9205 C   0  0  0  0  0  0  0  0  0  0  0  0
    8.2089    3.6265   20.8929 C   0  0  0  0  0  0  0  0  0  0  0  0
    7.3827    2.5724   20.5432 C   0  0  0  0  0  0  0  0  0  0  0  0
   11.1529    7.2750   20.8025 C   0  0  0  0  0  0  0  0  0  0  0  0
   10.2573    8.3215   20.9827 C   0  0  0  0  0  0  0  0  0  0  0  0
   11.1606    5.9378   21.2366 N   0  0  0  0  0  0  0  0  0  0  0  0
    9.8932   11.6736   19.0677 O   0  0  0  0  0  0  0  0  0  0  0  0
    6.4470    4.5850   22.2321 C   0  0  0  0  0  0  0  0  0  0  0  0
    8.4619    6.9895   22.2968 C   0  0  0  0  0  0  0  0  0  0  0  0
   12.2747    7.5102   20.0420 C   0  0  0  0  0  0  0  0  0  0  0  0
   14.2544    6.2142   19.4191 C   0  0  0  0  0  0  0  0  0  0  0  0
   13.0695    6.3705   20.0375 N   0  0  0  0  0  0  0  0  0  0  0  0
    9.1913    8.0876   21.8361 N   0  0  0  0  0  0  0  0  0  0  0  0
   10.4739    9.4813   20.2889 C   0  0  0  0  0  0  0  0  0  0  0  0
    7.5551    7.1270   23.1200 O   0  0  0  0  0  0  0  0  0  0  0  0
  1 11  4  0
  1 21  4  0
  2  4  1  0
  2  8  1  0
  2 11  1  0
  3 10  4  0
  3 14  4  0
  4  5  1  0
  4 18  2  0
  6 12  1  0
  6 17  4  0
  6 23  4  0
  7  9  1  0
  7 13  4  0
  7 19  4  0
  9 20  1  0
 10 19  4  0
 11 25  4  0
 13 14  4  0
 15 16  4  0
 15 17  4  0
 15 21  4  0
 16 24  1  0
 16 25  4  0
 20 24  1  0
 20 26  2  0
 21 23  4  0
 22 23  1  0
M  END
$$$$

 Created by Python create_sdf_string function

 26 28  0  0  0  0  0  0  0  0999 V2000
   12.4616    8.6700   19.4180 N   0  0  0  0  0  0  0  0  0  0  0  0
   11.8329   10.8148   18.6769 N   0  0  0  0  0  0  0  0  0  0  0  0
    6.1021    2.5564   21.0678 C   0  0  0  0  0  0  0  0  0  0  0  0
   10.9097   11.8051   18.4804 C   0  0  0  0  0  0  0  0  0  0  0  0
   11.2280   12.9135   17.5669 C   0  0  0  0  0  0  0  0  0  0  0  0
   12.3782    5.4231   20.7777 C   0  0  0  0  0  0  0  0  0  0  0  0
    7.7365    4.6508   21.6987 C   0  0  0  0  0  0  0  0  0  0  0  0
   13.0186   11.0102   18.0020 C   0  0  0  0  0  0  0  0  0  0  0  0
    8.6628    5.7088   21.8871 N   0  0  0  0  0  0  0  0  0  0  0  0
    5.6516    3.5258   21.9140 C   0  0  0  0  0  0  0  0  0  0  0  0
   11.5863    9.6815   19.4539 C   0  0  0  0  0  0  0  0  0  0  0  0
   12.9648    4.1543   20.9205 C   0  0  0  0  0  0  0  0  0  0  0  0
    8.2089    3.6265   20.8929 C   0  0  0  0  0  0  0  0  0  0  0  0
    7.3827    2.5724   20.5432 C   0  0  0  0  0  0  0  0  0  0  0  0
   11.1529    7.2750   20.8025 C   0  0  0  0  0  0  0  0  0  0  0  0
   10.2573    8.3215   20.9827 C   0  0  0  0  0  0  0  0  0  0  0  0
   11.1606    5.9378   21.2366 N   0  0  0  0  0  0  0  0  0  0  0  0
    9.8932   11.6736   19.0677 O   0  0  0  0  0  0  0  0  0  0  0  0
    6.4470    4.5850   22.2321 C   0  0  0  0  0  0  0  0  0  0  0  0
    8.4619    6.9895   22.2968 C   0  0  0  0  0  0  0  0  0  0  0  0
   12.2747    7.5102   20.0420 C   0  0  0  0  0  0  0  0  0  0  0  0
   14.2544    6.2142   19.4191 C   0  0  0  0  0  0  0  0  0  0  0  0
   13.0695    6.3705   20.0375 N   0  0  0  0  0  0  0  0  0  0  0  0
    9.1913    8.0876   21.8361 N   0  0  0  0  0  0  0  0  0  0  0  0
   10.4739    9.4813   20.2889 C   0  0  0  0  0  0  0  0  0  0  0  0
    7.5551    7.1270   23.1200 O   0  0  0  0  0  0  0  0  0  0  0  0
  1 11  4  0
  1 21  4  0
  2  4  1  0
  2  8  1  0
  2 11  1  0
  3 10  4  0
  3 14  4  0
  4  5  1  0
  4 18  2  0
  6 12  1  0
  6 17  4  0
  6 23  4  0
  7  9  1  0
  7 13  4  0
  7 19  4  0
  9 20  1  0
 10 19  4  0
 11 25  4  0
 13 14  4  0
 15 16  4  0
 15 17  4  0
 15 21  4  0
 16 24  1  0
 16 25  4  0
 20 24  1  0
 20 26  2  0
 21 23  4  0
 22 23  1  0
M  END
$$$$

 Created by Python create_sdf_string function

 26 28  0  0  0  0  0  0  0  0999 V2000
   12.4616    8.6700   19.4180 N   0  0  0  0  0  0  0  0  0  0  0  0
   11.8329   10.8148   18.6769 N   0  0  0  0  0  0  0  0  0  0  0  0
    6.1021    2.5564   21.0678 C   0  0  0  0  0  0  0  0  0  0  0  0
   10.9097   11.8051   18.4804 C   0  0  0  0  0  0  0  0  0  0  0  0
   11.2280   12.9135   17.5669 C   0  0  0  0  0  0  0  0  0  0  0  0
   12.3782    5.4231   20.7777 C   0  0  0  0  0  0  0  0  0  0  0  0
    7.7365    4.6508   21.6987 C   0  0  0  0  0  0  0  0  0  0  0  0
   13.0186   11.0102   18.0020 C   0  0  0  0  0  0  0  0  0  0  0  0
    8.6628    5.7088   21.8871 N   0  0  0  0  0  0  0  0  0  0  0  0
    5.6516    3.5258   21.9140 C   0  0  0  0  0  0  0  0  0  0  0  0
   11.5863    9.6815   19.4539 C   0  0  0  0  0  0  0  0  0  0  0  0
   12.9648    4.1543   20.9205 C   0  0  0  0  0  0  0  0  0  0  0  0
    8.2089    3.6265   20.8929 C   0  0  0  0  0  0  0  0  0  0  0  0
    7.3827    2.5724   20.5432 C   0  0  0  0  0  0  0  0  0  0  0  0
   11.1529    7.2750   20.8025 C   0  0  0  0  0  0  0  0  0  0  0  0
   10.2573    8.3215   20.9827 C   0  0  0  0  0  0  0  0  0  0  0  0
   11.1606    5.9378   21.2366 N   0  0  0  0  0  0  0  0  0  0  0  0
    9.8932   11.6736   19.0677 O   0  0  0  0  0  0  0  0  0  0  0  0
    6.4470    4.5850   22.2321 C   0  0  0  0  0  0  0  0  0  0  0  0
    8.4619    6.9895   22.2968 C   0  0  0  0  0  0  0  0  0  0  0  0
   12.2747    7.5102   20.0420 C   0  0  0  0  0  0  0  0  0  0  0  0
   14.2544    6.2142   19.4191 C   0  0  0  0  0  0  0  0  0  0  0  0
   13.0695    6.3705   20.0375 N   0  0  0  0  0  0  0  0  0  0  0  0
    9.1913    8.0876   21.8361 N   0  0  0  0  0  0  0  0  0  0  0  0
   10.4739    9.4813   20.2889 C   0  0  0  0  0  0  0  0  0  0  0  0
    7.5551    7.1270   23.1200 O   0  0  0  0  0  0  0  0  0  0  0  0
  1 11  4  0
  1 21  4  0
  2  4  1  0
  2  8  1  0
  2 11  1  0
  3 10  4  0
  3 14  4  0
  4  5  1  0
  4 18  2  0
  6 12  1  0
  6 17  4  0
  6 23  4  0
  7  9  1  0
  7 13  4  0
  7 19  4  0
  9 20  1  0
 10 19  4  0
 11 25  4  0
 13 14  4  0
 15 16  4  0
 15 17  4  0
 15 21  4  0
 16 24  1  0
 16 25  4  0
 20 24  1  0
 20 26  2  0
 21 23  4  0
 22 23  1  0
M  END
$$$$

 Created by Python create_sdf_string function

 26 28  0  0  0  0  0  0  0  0999 V2000
   12.4616    8.6700   19.4180 N   0  0  0  0  0  0  0  0  0  0  0  0
   11.8329   10.8148   18.6769 N   0  0  0  0  0  0  0  0  0  0  0  0
    6.1021    2.5564   21.0678 C   0  0  0  0  0  0  0  0  0  0  0  0
   10.9097   11.8051   18.4804 C   0  0  0  0  0  0  0  0  0  0  0  0
   11.2280   12.9135   17.5669 C   0  0  0  0  0  0  0  0  0  0  0  0
   12.3782    5.4231   20.7777 C   0  0  0  0  0  0  0  0  0  0  0  0
    7.7365    4.6508   21.6987 C   0  0  0  0  0  0  0  0  0  0  0  0
   13.0186   11.0102   18.0020 C   0  0  0  0  0  0  0  0  0  0  0  0
    8.6628    5.7088   21.8871 N   0  0  0  0  0  0  0  0  0  0  0  0
    5.6516    3.5258   21.9140 C   0  0  0  0  0  0  0  0  0  0  0  0
   11.5863    9.6815   19.4539 C   0  0  0  0  0  0  0  0  0  0  0  0
   12.9648    4.1543   20.9205 C   0  0  0  0  0  0  0  0  0  0  0  0
    8.2089    3.6265   20.8929 C   0  0  0  0  0  0  0  0  0  0  0  0
    7.3827    2.5724   20.5432 C   0  0  0  0  0  0  0  0  0  0  0  0
   11.1529    7.2750   20.8025 C   0  0  0  0  0  0  0  0  0  0  0  0
   10.2573    8.3215   20.9827 C   0  0  0  0  0  0  0  0  0  0  0  0
   11.1606    5.9378   21.2366 N   0  0  0  0  0  0  0  0  0  0  0  0
    9.8932   11.6736   19.0677 O   0  0  0  0  0  0  0  0  0  0  0  0
    6.4470    4.5850   22.2321 C   0  0  0  0  0  0  0  0  0  0  0  0
    8.4619    6.9895   22.2968 C   0  0  0  0  0  0  0  0  0  0  0  0
   12.2747    7.5102   20.0420 C   0  0  0  0  0  0  0  0  0  0  0  0
   14.2544    6.2142   19.4191 C   0  0  0  0  0  0  0  0  0  0  0  0
   13.0695    6.3705   20.0375 N   0  0  0  0  0  0  0  0  0  0  0  0
    9.1913    8.0876   21.8361 N   0  0  0  0  0  0  0  0  0  0  0  0
   10.4739    9.4813   20.2889 C   0  0  0  0  0  0  0  0  0  0  0  0
    7.5551    7.1270   23.1200 O   0  0  0  0  0  0  0  0  0  0  0  0
  1 11  4  0
  1 21  4  0
  2  4  1  0
  2  8  1  0
  2 11  1  0
  3 10  4  0
  3 14  4  0
  4  5  1  0
  4 18  2  0
  6 12  1  0
  6 17  4  0
  6 23  4  0
  7  9  1  0
  7 13  4  0
  7 19  4  0
  9 20  1  0
 10 19  4  0
 11 25  4  0
 13 14  4  0
 15 16  4  0
 15 17  4  0
 15 21  4  0
 16 24  1  0
 16 25  4  0
 20 24  1  0
 20 26  2  0
 21 23  4  0
 22 23  1  0
M  END
$$$$

 Created by Python create_sdf_string function

 26 28  0  0  0  0  0  0  0  0999 V2000
   12.4616    8.6700   19.4180 N   0  0  0  0  0  0  0  0  0  0  0  0
   11.8329   10.8148   18.6769 N   0  0  0  0  0  0  0  0  0  0  0  0
    6.1021    2.5564   21.0678 C   0  0  0  0  0  0  0  0  0  0  0  0
   10.9097   11.8051   18.4804 C   0  0  0  0  0  0  0  0  0  0  0  0
   11.2280   12.9135   17.5669 C   0  0  0  0  0  0  0  0  0  0  0  0
   12.3782    5.4231   20.7777 C   0  0  0  0  0  0  0  0  0  0  0  0
    7.7365    4.6508   21.6987 C   0  0  0  0  0  0  0  0  0  0  0  0
   13.0186   11.0102   18.0020 C   0  0  0  0  0  0  0  0  0  0  0  0
    8.6628    5.7088   21.8871 N   0  0  0  0  0  0  0  0  0  0  0  0
    5.6516    3.5258   21.9140 C   0  0  0  0  0  0  0  0  0  0  0  0
   11.5863    9.6815   19.4539 C   0  0  0  0  0  0  0  0  0  0  0  0
   12.9648    4.1543   20.9205 C   0  0  0  0  0  0  0  0  0  0  0  0
    8.2089    3.6265   20.8929 C   0  0  0  0  0  0  0  0  0  0  0  0
    7.3827    2.5724   20.5432 C   0  0  0  0  0  0  0  0  0  0  0  0
   11.1529    7.2750   20.8025 C   0  0  0  0  0  0  0  0  0  0  0  0
   10.2573    8.3215   20.9827 C   0  0  0  0  0  0  0  0  0  0  0  0
   11.1606    5.9378   21.2366 N   0  0  0  0  0  0  0  0  0  0  0  0
    9.8932   11.6736   19.0677 O   0  0  0  0  0  0  0  0  0  0  0  0
    6.4470    4.5850   22.2321 C   0  0  0  0  0  0  0  0  0  0  0  0
    8.4619    6.9895   22.2968 C   0  0  0  0  0  0  0  0  0  0  0  0
   12.2747    7.5102   20.0420 C   0  0  0  0  0  0  0  0  0  0  0  0
   14.2544    6.2142   19.4191 C   0  0  0  0  0  0  0  0  0  0  0  0
   13.0695    6.3705   20.0375 N   0  0  0  0  0  0  0  0  0  0  0  0
    9.1913    8.0876   21.8361 N   0  0  0  0  0  0  0  0  0  0  0  0
   10.4739    9.4813   20.2889 C   0  0  0  0  0  0  0  0  0  0  0  0
    7.5551    7.1270   23.1200 O   0  0  0  0  0  0  0  0  0  0  0  0
  1 11  4  0
  1 21  4  0
  2  4  1  0
  2  8  1  0
  2 11  1  0
  3 10  4  0
  3 14  4  0
  4  5  1  0
  4 18  2  0
  6 12  1  0
  6 17  4  0
  6 23  4  0
  7  9  1  0
  7 13  4  0
  7 19  4  0
  9 20  1  0
 10 19  4  0
 11 25  4  0
 13 14  4  0
 15 16  4  0
 15 17  4  0
 15 21  4  0
 16 24  1  0
 16 25  4  0
 20 24  1  0
 20 26  2  0
 21 23  4  0
 22 23  1  0
M  END
$$$$

 Created by Python create_sdf_string function

 26 28  0  0  0  0  0  0  0  0999 V2000
   12.4616    8.6700   19.4180 N   0  0  0  0  0  0  0  0  0  0  0  0
   11.8329   10.8148   18.6769 N   0  0  0  0  0  0  0  0  0  0  0  0
    6.1021    2.5564   21.0678 C   0  0  0  0  0  0  0  0  0  0  0  0
   10.9097   11.8051   18.4804 C   0  0  0  0  0  0  0  0  0  0  0  0
   11.2280   12.9135   17.5669 C   0  0  0  0  0  0  0  0  0  0  0  0
   12.3782    5.4231   20.7777 C   0  0  0  0  0  0  0  0  0  0  0  0
    7.7365    4.6508   21.6987 C   0  0  0  0  0  0  0  0  0  0  0  0
   13.0186   11.0102   18.0020 C   0  0  0  0  0  0  0  0  0  0  0  0
    8.6628    5.7088   21.8871 N   0  0  0  0  0  0  0  0  0  0  0  0
    5.6516    3.5258   21.9140 C   0  0  0  0  0  0  0  0  0  0  0  0
   11.5863    9.6815   19.4539 C   0  0  0  0  0  0  0  0  0  0  0  0
   12.9648    4.1543   20.9205 C   0  0  0  0  0  0  0  0  0  0  0  0
    8.2089    3.6265   20.8929 C   0  0  0  0  0  0  0  0  0  0  0  0
    7.3827    2.5724   20.5432 C   0  0  0  0  0  0  0  0  0  0  0  0
   11.1529    7.2750   20.8025 C   0  0  0  0  0  0  0  0  0  0  0  0
   10.2573    8.3215   20.9827 C   0  0  0  0  0  0  0  0  0  0  0  0
   11.1606    5.9378   21.2366 N   0  0  0  0  0  0  0  0  0  0  0  0
    9.8932   11.6736   19.0677 O   0  0  0  0  0  0  0  0  0  0  0  0
    6.4470    4.5850   22.2321 C   0  0  0  0  0  0  0  0  0  0  0  0
    8.4619    6.9895   22.2968 C   0  0  0  0  0  0  0  0  0  0  0  0
   12.2747    7.5102   20.0420 C   0  0  0  0  0  0  0  0  0  0  0  0
   14.2544    6.2142   19.4191 C   0  0  0  0  0  0  0  0  0  0  0  0
   13.0695    6.3705   20.0375 N   0  0  0  0  0  0  0  0  0  0  0  0
    9.1913    8.0876   21.8361 N   0  0  0  0  0  0  0  0  0  0  0  0
   10.4739    9.4813   20.2889 C   0  0  0  0  0  0  0  0  0  0  0  0
    7.5551    7.1270   23.1200 O   0  0  0  0  0  0  0  0  0  0  0  0
  1 11  4  0
  1 21  4  0
  2  4  1  0
  2  8  1  0
  2 11  1  0
  3 10  4  0
  3 14  4  0
  4  5  1  0
  4 18  2  0
  6 12  1  0
  6 17  4  0
  6 23  4  0
  7  9  1  0
  7 13  4  0
  7 19  4  0
  9 20  1  0
 10 19  4  0
 11 25  4  0
 13 14  4  0
 15 16  4  0
 15 17  4  0
 15 21  4  0
 16 24  1  0
 16 25  4  0
 20 24  1  0
 20 26  2  0
 21 23  4  0
 22 23  1  0
M  END
$$$$

 Created by Python create_sdf_string function

 26 28  0  0  0  0  0  0  0  0999 V2000
   12.4616    8.6700   19.4180 N   0  0  0  0  0  0  0  0  0  0  0  0
   11.8329   10.8148   18.6769 N   0  0  0  0  0  0  0  0  0  0  0  0
    6.1021    2.5564   21.0678 C   0  0  0  0  0  0  0  0  0  0  0  0
   10.9097   11.8051   18.4804 C   0  0  0  0  0  0  0  0  0  0  0  0
   11.2280   12.9135   17.5669 C   0  0  0  0  0  0  0  0  0  0  0  0
   12.3782    5.4231   20.7777 C   0  0  0  0  0  0  0  0  0  0  0  0
    7.7365    4.6508   21.6987 C   0  0  0  0  0  0  0  0  0  0  0  0
   13.0186   11.0102   18.0020 C   0  0  0  0  0  0  0  0  0  0  0  0
    8.6628    5.7088   21.8871 N   0  0  0  0  0  0  0  0  0  0  0  0
    5.6516    3.5258   21.9140 C   0  0  0  0  0  0  0  0  0  0  0  0
   11.5863    9.6815   19.4539 C   0  0  0  0  0  0  0  0  0  0  0  0
   12.9648    4.1543   20.9205 C   0  0  0  0  0  0  0  0  0  0  0  0
    8.2089    3.6265   20.8929 C   0  0  0  0  0  0  0  0  0  0  0  0
    7.3827    2.5724   20.5432 C   0  0  0  0  0  0  0  0  0  0  0  0
   11.1529    7.2750   20.8025 C   0  0  0  0  0  0  0  0  0  0  0  0
   10.2573    8.3215   20.9827 C   0  0  0  0  0  0  0  0  0  0  0  0
   11.1606    5.9378   21.2366 N   0  0  0  0  0  0  0  0  0  0  0  0
    9.8932   11.6736   19.0677 O   0  0  0  0  0  0  0  0  0  0  0  0
    6.4470    4.5850   22.2321 C   0  0  0  0  0  0  0  0  0  0  0  0
    8.4619    6.9895   22.2968 C   0  0  0  0  0  0  0  0  0  0  0  0
   12.2747    7.5102   20.0420 C   0  0  0  0  0  0  0  0  0  0  0  0
   14.2544    6.2142   19.4191 C   0  0  0  0  0  0  0  0  0  0  0  0
   13.0695    6.3705   20.0375 N   0  0  0  0  0  0  0  0  0  0  0  0
    9.1913    8.0876   21.8361 N   0  0  0  0  0  0  0  0  0  0  0  0
   10.4739    9.4813   20.2889 C   0  0  0  0  0  0  0  0  0  0  0  0
    7.5551    7.1270   23.1200 O   0  0  0  0  0  0  0  0  0  0  0  0
  1 11  4  0
  1 21  4  0
  2  4  1  0
  2  8  1  0
  2 11  1  0
  3 10  4  0
  3 14  4  0
  4  5  1  0
  4 18  2  0
  6 12  1  0
  6 17  4  0
  6 23  4  0
  7  9  1  0
  7 13  4  0
  7 19  4  0
  9 20  1  0
 10 19  4  0
 11 25  4  0
 13 14  4  0
 15 16  4  0
 15 17  4  0
 15 21  4  0
 16 24  1  0
 16 25  4  0
 20 24  1  0
 20 26  2  0
 21 23  4  0
 22 23  1  0
M  END
$$$$

 Created by Python create_sdf_string function

 26 28  0  0  0  0  0  0  0  0999 V2000
   12.4616    8.6700   19.4180 N   0  0  0  0  0  0  0  0  0  0  0  0
   11.8329   10.8148   18.6769 N   0  0  0  0  0  0  0  0  0  0  0  0
    6.1021    2.5564   21.0678 C   0  0  0  0  0  0  0  0  0  0  0  0
   10.9097   11.8051   18.4804 C   0  0  0  0  0  0  0  0  0  0  0  0
   11.2280   12.9135   17.5669 C   0  0  0  0  0  0  0  0  0  0  0  0
   12.3782    5.4231   20.7777 C   0  0  0  0  0  0  0  0  0  0  0  0
    7.7365    4.6508   21.6987 C   0  0  0  0  0  0  0  0  0  0  0  0
   13.0186   11.0102   18.0020 C   0  0  0  0  0  0  0  0  0  0  0  0
    8.6628    5.7088   21.8871 N   0  0  0  0  0  0  0  0  0  0  0  0
    5.6516    3.5258   21.9140 C   0  0  0  0  0  0  0  0  0  0  0  0
   11.5863    9.6815   19.4539 C   0  0  0  0  0  0  0  0  0  0  0  0
   12.9648    4.1543   20.9205 C   0  0  0  0  0  0  0  0  0  0  0  0
    8.2089    3.6265   20.8929 C   0  0  0  0  0  0  0  0  0  0  0  0
    7.3827    2.5724   20.5432 C   0  0  0  0  0  0  0  0  0  0  0  0
   11.1529    7.2750   20.8025 C   0  0  0  0  0  0  0  0  0  0  0  0
   10.2573    8.3215   20.9827 C   0  0  0  0  0  0  0  0  0  0  0  0
   11.1606    5.9378   21.2366 N   0  0  0  0  0  0  0  0  0  0  0  0
    9.8932   11.6736   19.0677 O   0  0  0  0  0  0  0  0  0  0  0  0
    6.4470    4.5850   22.2321 C   0  0  0  0  0  0  0  0  0  0  0  0
    8.4619    6.9895   22.2968 C   0  0  0  0  0  0  0  0  0  0  0  0
   12.2747    7.5102   20.0420 C   0  0  0  0  0  0  0  0  0  0  0  0
   14.2544    6.2142   19.4191 C   0  0  0  0  0  0  0  0  0  0  0  0
   13.0695    6.3705   20.0375 N   0  0  0  0  0  0  0  0  0  0  0  0
    9.1913    8.0876   21.8361 N   0  0  0  0  0  0  0  0  0  0  0  0
   10.4739    9.4813   20.2889 C   0  0  0  0  0  0  0  0  0  0  0  0
    7.5551    7.1270   23.1200 O   0  0  0  0  0  0  0  0  0  0  0  0
  1 11  4  0
  1 21  4  0
  2  4  1  0
  2  8  1  0
  2 11  1  0
  3 10  4  0
  3 14  4  0
  4  5  1  0
  4 18  2  0
  6 12  1  0
  6 17  4  0
  6 23  4  0
  7  9  1  0
  7 13  4  0
  7 19  4  0
  9 20  1  0
 10 19  4  0
 11 25  4  0
 13 14  4  0
 15 16  4  0
 15 17  4  0
 15 21  4  0
 16 24  1  0
 16 25  4  0
 20 24  1  0
 20 26  2  0
 21 23  4  0
 22 23  1  0
M  END
$$$$

 Created by Python create_sdf_string function

 26 28  0  0  0  0  0  0  0  0999 V2000
   12.4616    8.6700   19.4180 N   0  0  0  0  0  0  0  0  0  0  0  0
   11.8329   10.8148   18.6769 N   0  0  0  0  0  0  0  0  0  0  0  0
    6.1021    2.5564   21.0678 C   0  0  0  0  0  0  0  0  0  0  0  0
   10.9097   11.8051   18.4804 C   0  0  0  0  0  0  0  0  0  0  0  0
   11.2280   12.9135   17.5669 C   0  0  0  0  0  0  0  0  0  0  0  0
   12.3782    5.4231   20.7777 C   0  0  0  0  0  0  0  0  0  0  0  0
    7.7365    4.6508   21.6987 C   0  0  0  0  0  0  0  0  0  0  0  0
   13.0186   11.0102   18.0020 C   0  0  0  0  0  0  0  0  0  0  0  0
    8.6628    5.7088   21.8871 N   0  0  0  0  0  0  0  0  0  0  0  0
    5.6516    3.5258   21.9140 C   0  0  0  0  0  0  0  0  0  0  0  0
   11.5863    9.6815   19.4539 C   0  0  0  0  0  0  0  0  0  0  0  0
   12.9648    4.1543   20.9205 C   0  0  0  0  0  0  0  0  0  0  0  0
    8.2089    3.6265   20.8929 C   0  0  0  0  0  0  0  0  0  0  0  0
    7.3827    2.5724   20.5432 C   0  0  0  0  0  0  0  0  0  0  0  0
   11.1529    7.2750   20.8025 C   0  0  0  0  0  0  0  0  0  0  0  0
   10.2573    8.3215   20.9827 C   0  0  0  0  0  0  0  0  0  0  0  0
   11.1606    5.9378   21.2366 N   0  0  0  0  0  0  0  0  0  0  0  0
    9.8932   11.6736   19.0677 O   0  0  0  0  0  0  0  0  0  0  0  0
    6.4470    4.5850   22.2321 C   0  0  0  0  0  0  0  0  0  0  0  0
    8.4619    6.9895   22.2968 C   0  0  0  0  0  0  0  0  0  0  0  0
   12.2747    7.5102   20.0420 C   0  0  0  0  0  0  0  0  0  0  0  0
   14.2544    6.2142   19.4191 C   0  0  0  0  0  0  0  0  0  0  0  0
   13.0695    6.3705   20.0375 N   0  0  0  0  0  0  0  0  0  0  0  0
    9.1913    8.0876   21.8361 N   0  0  0  0  0  0  0  0  0  0  0  0
   10.4739    9.4813   20.2889 C   0  0  0  0  0  0  0  0  0  0  0  0
    7.5551    7.1270   23.1200 O   0  0  0  0  0  0  0  0  0  0  0  0
  1 11  4  0
  1 21  4  0
  2  4  1  0
  2  8  1  0
  2 11  1  0
  3 10  4  0
  3 14  4  0
  4  5  1  0
  4 18  2  0
  6 12  1  0
  6 17  4  0
  6 23  4  0
  7  9  1  0
  7 13  4  0
  7 19  4  0
  9 20  1  0
 10 19  4  0
 11 25  4  0
 13 14  4  0
 15 16  4  0
 15 17  4  0
 15 21  4  0
 16 24  1  0
 16 25  4  0
 20 24  1  0
 20 26  2  0
 21 23  4  0
 22 23  1  0
M  END
$$$$

 Created by Python create_sdf_string function

 26 28  0  0  0  0  0  0  0  0999 V2000
   12.4616    8.6700   19.4180 N   0  0  0  0  0  0  0  0  0  0  0  0
   11.8329   10.8148   18.6769 N   0  0  0  0  0  0  0  0  0  0  0  0
    6.1021    2.5564   21.0678 C   0  0  0  0  0  0  0  0  0  0  0  0
   10.9097   11.8051   18.4804 C   0  0  0  0  0  0  0  0  0  0  0  0
   11.2280   12.9135   17.5669 C   0  0  0  0  0  0  0  0  0  0  0  0
   12.3782    5.4231   20.7777 C   0  0  0  0  0  0  0  0  0  0  0  0
    7.7365    4.6508   21.6987 C   0  0  0  0  0  0  0  0  0  0  0  0
   13.0186   11.0102   18.0020 C   0  0  0  0  0  0  0  0  0  0  0  0
    8.6628    5.7088   21.8871 N   0  0  0  0  0  0  0  0  0  0  0  0
    5.6516    3.5258   21.9140 C   0  0  0  0  0  0  0  0  0  0  0  0
   11.5863    9.6815   19.4539 C   0  0  0  0  0  0  0  0  0  0  0  0
   12.9648    4.1543   20.9205 C   0  0  0  0  0  0  0  0  0  0  0  0
    8.2089    3.6265   20.8929 C   0  0  0  0  0  0  0  0  0  0  0  0
    7.3827    2.5724   20.5432 C   0  0  0  0  0  0  0  0  0  0  0  0
   11.1529    7.2750   20.8025 C   0  0  0  0  0  0  0  0  0  0  0  0
   10.2573    8.3215   20.9827 C   0  0  0  0  0  0  0  0  0  0  0  0
   11.1606    5.9378   21.2366 N   0  0  0  0  0  0  0  0  0  0  0  0
    9.8932   11.6736   19.0677 O   0  0  0  0  0  0  0  0  0  0  0  0
    6.4470    4.5850   22.2321 C   0  0  0  0  0  0  0  0  0  0  0  0
    8.4619    6.9895   22.2968 C   0  0  0  0  0  0  0  0  0  0  0  0
   12.2747    7.5102   20.0420 C   0  0  0  0  0  0  0  0  0  0  0  0
   14.2544    6.2142   19.4191 C   0  0  0  0  0  0  0  0  0  0  0  0
   13.0695    6.3705   20.0375 N   0  0  0  0  0  0  0  0  0  0  0  0
    9.1913    8.0876   21.8361 N   0  0  0  0  0  0  0  0  0  0  0  0
   10.4739    9.4813   20.2889 C   0  0  0  0  0  0  0  0  0  0  0  0
    7.5551    7.1270   23.1200 O   0  0  0  0  0  0  0  0  0  0  0  0
  1 11  4  0
  1 21  4  0
  2  4  1  0
  2  8  1  0
  2 11  1  0
  3 10  4  0
  3 14  4  0
  4  5  1  0
  4 18  2  0
  6 12  1  0
  6 17  4  0
  6 23  4  0
  7  9  1  0
  7 13  4  0
  7 19  4  0
  9 20  1  0
 10 19  4  0
 11 25  4  0
 13 14  4  0
 15 16  4  0
 15 17  4  0
 15 21  4  0
 16 24  1  0
 16 25  4  0
 20 24  1  0
 20 26  2  0
 21 23  4  0
 22 23  1  0
M  END
$$$$

 Created by Python create_sdf_string function

 26 28  0  0  0  0  0  0  0  0999 V2000
   12.4616    8.6700   19.4180 N   0  0  0  0  0  0  0  0  0  0  0  0
   11.8329   10.8148   18.6769 N   0  0  0  0  0  0  0  0  0  0  0  0
    6.1021    2.5564   21.0678 C   0  0  0  0  0  0  0  0  0  0  0  0
   10.9097   11.8051   18.4804 C   0  0  0  0  0  0  0  0  0  0  0  0
   11.2280   12.9135   17.5669 C   0  0  0  0  0  0  0  0  0  0  0  0
   12.3782    5.4231   20.7777 C   0  0  0  0  0  0  0  0  0  0  0  0
    7.7365    4.6508   21.6987 C   0  0  0  0  0  0  0  0  0  0  0  0
   13.0186   11.0102   18.0020 C   0  0  0  0  0  0  0  0  0  0  0  0
    8.6628    5.7088   21.8871 N   0  0  0  0  0  0  0  0  0  0  0  0
    5.6516    3.5258   21.9140 C   0  0  0  0  0  0  0  0  0  0  0  0
   11.5863    9.6815   19.4539 C   0  0  0  0  0  0  0  0  0  0  0  0
   12.9648    4.1543   20.9205 C   0  0  0  0  0  0  0  0  0  0  0  0
    8.2089    3.6265   20.8929 C   0  0  0  0  0  0  0  0  0  0  0  0
    7.3827    2.5724   20.5432 C   0  0  0  0  0  0  0  0  0  0  0  0
   11.1529    7.2750   20.8025 C   0  0  0  0  0  0  0  0  0  0  0  0
   10.2573    8.3215   20.9827 C   0  0  0  0  0  0  0  0  0  0  0  0
   11.1606    5.9378   21.2366 N   0  0  0  0  0  0  0  0  0  0  0  0
    9.8932   11.6736   19.0677 O   0  0  0  0  0  0  0  0  0  0  0  0
    6.4470    4.5850   22.2321 C   0  0  0  0  0  0  0  0  0  0  0  0
    8.4619    6.9895   22.2968 C   0  0  0  0  0  0  0  0  0  0  0  0
   12.2747    7.5102   20.0420 C   0  0  0  0  0  0  0  0  0  0  0  0
   14.2544    6.2142   19.4191 C   0  0  0  0  0  0  0  0  0  0  0  0
   13.0695    6.3705   20.0375 N   0  0  0  0  0  0  0  0  0  0  0  0
    9.1913    8.0876   21.8361 N   0  0  0  0  0  0  0  0  0  0  0  0
   10.4739    9.4813   20.2889 C   0  0  0  0  0  0  0  0  0  0  0  0
    7.5551    7.1270   23.1200 O   0  0  0  0  0  0  0  0  0  0  0  0
  1 11  4  0
  1 21  4  0
  2  4  1  0
  2  8  1  0
  2 11  1  0
  3 10  4  0
  3 14  4  0
  4  5  1  0
  4 18  2  0
  6 12  1  0
  6 17  4  0
  6 23  4  0
  7  9  1  0
  7 13  4  0
  7 19  4  0
  9 20  1  0
 10 19  4  0
 11 25  4  0
 13 14  4  0
 15 16  4  0
 15 17  4  0
 15 21  4  0
 16 24  1  0
 16 25  4  0
 20 24  1  0
 20 26  2  0
 21 23  4  0
 22 23  1  0
M  END
$$$$

 Created by Python create_sdf_string function

 26 28  0  0  0  0  0  0  0  0999 V2000
   12.4616    8.6700   19.4180 N   0  0  0  0  0  0  0  0  0  0  0  0
   11.8329   10.8148   18.6769 N   0  0  0  0  0  0  0  0  0  0  0  0
    6.1021    2.5564   21.0678 C   0  0  0  0  0  0  0  0  0  0  0  0
   10.9097   11.8051   18.4804 C   0  0  0  0  0  0  0  0  0  0  0  0
   11.2280   12.9135   17.5669 C   0  0  0  0  0  0  0  0  0  0  0  0
   12.3782    5.4231   20.7777 C   0  0  0  0  0  0  0  0  0  0  0  0
    7.7365    4.6508   21.6987 C   0  0  0  0  0  0  0  0  0  0  0  0
   13.0186   11.0102   18.0020 C   0  0  0  0  0  0  0  0  0  0  0  0
    8.6628    5.7088   21.8871 N   0  0  0  0  0  0  0  0  0  0  0  0
    5.6516    3.5258   21.9140 C   0  0  0  0  0  0  0  0  0  0  0  0
   11.5863    9.6815   19.4539 C   0  0  0  0  0  0  0  0  0  0  0  0
   12.9648    4.1543   20.9205 C   0  0  0  0  0  0  0  0  0  0  0  0
    8.2089    3.6265   20.8929 C   0  0  0  0  0  0  0  0  0  0  0  0
    7.3827    2.5724   20.5432 C   0  0  0  0  0  0  0  0  0  0  0  0
   11.1529    7.2750   20.8025 C   0  0  0  0  0  0  0  0  0  0  0  0
   10.2573    8.3215   20.9827 C   0  0  0  0  0  0  0  0  0  0  0  0
   11.1606    5.9378   21.2366 N   0  0  0  0  0  0  0  0  0  0  0  0
    9.8932   11.6736   19.0677 O   0  0  0  0  0  0  0  0  0  0  0  0
    6.4470    4.5850   22.2321 C   0  0  0  0  0  0  0  0  0  0  0  0
    8.4619    6.9895   22.2968 C   0  0  0  0  0  0  0  0  0  0  0  0
   12.2747    7.5102   20.0420 C   0  0  0  0  0  0  0  0  0  0  0  0
   14.2544    6.2142   19.4191 C   0  0  0  0  0  0  0  0  0  0  0  0
   13.0695    6.3705   20.0375 N   0  0  0  0  0  0  0  0  0  0  0  0
    9.1913    8.0876   21.8361 N   0  0  0  0  0  0  0  0  0  0  0  0
   10.4739    9.4813   20.2889 C   0  0  0  0  0  0  0  0  0  0  0  0
    7.5551    7.1270   23.1200 O   0  0  0  0  0  0  0  0  0  0  0  0
  1 11  4  0
  1 21  4  0
  2  4  1  0
  2  8  1  0
  2 11  1  0
  3 10  4  0
  3 14  4  0
  4  5  1  0
  4 18  2  0
  6 12  1  0
  6 17  4  0
  6 23  4  0
  7  9  1  0
  7 13  4  0
  7 19  4  0
  9 20  1  0
 10 19  4  0
 11 25  4  0
 13 14  4  0
 15 16  4  0
 15 17  4  0
 15 21  4  0
 16 24  1  0
 16 25  4  0
 20 24  1  0
 20 26  2  0
 21 23  4  0
 22 23  1  0
M  END
$$$$

 Created by Python create_sdf_string function

 26 28  0  0  0  0  0  0  0  0999 V2000
   12.4616    8.6700   19.4180 N   0  0  0  0  0  0  0  0  0  0  0  0
   11.8329   10.8148   18.6769 N   0  0  0  0  0  0  0  0  0  0  0  0
    6.1021    2.5564   21.0678 C   0  0  0  0  0  0  0  0  0  0  0  0
   10.9097   11.8051   18.4804 C   0  0  0  0  0  0  0  0  0  0  0  0
   11.2280   12.9135   17.5669 C   0  0  0  0  0  0  0  0  0  0  0  0
   12.3782    5.4231   20.7777 C   0  0  0  0  0  0  0  0  0  0  0  0
    7.7365    4.6508   21.6987 C   0  0  0  0  0  0  0  0  0  0  0  0
   13.0186   11.0102   18.0020 C   0  0  0  0  0  0  0  0  0  0  0  0
    8.6628    5.7088   21.8871 N   0  0  0  0  0  0  0  0  0  0  0  0
    5.6516    3.5258   21.9140 C   0  0  0  0  0  0  0  0  0  0  0  0
   11.5863    9.6815   19.4539 C   0  0  0  0  0  0  0  0  0  0  0  0
   12.9648    4.1543   20.9205 C   0  0  0  0  0  0  0  0  0  0  0  0
    8.2089    3.6265   20.8929 C   0  0  0  0  0  0  0  0  0  0  0  0
    7.3827    2.5724   20.5432 C   0  0  0  0  0  0  0  0  0  0  0  0
   11.1529    7.2750   20.8025 C   0  0  0  0  0  0  0  0  0  0  0  0
   10.2573    8.3215   20.9827 C   0  0  0  0  0  0  0  0  0  0  0  0
   11.1606    5.9378   21.2366 N   0  0  0  0  0  0  0  0  0  0  0  0
    9.8932   11.6736   19.0677 O   0  0  0  0  0  0  0  0  0  0  0  0
    6.4470    4.5850   22.2321 C   0  0  0  0  0  0  0  0  0  0  0  0
    8.4619    6.9895   22.2968 C   0  0  0  0  0  0  0  0  0  0  0  0
   12.2747    7.5102   20.0420 C   0  0  0  0  0  0  0  0  0  0  0  0
   14.2544    6.2142   19.4191 C   0  0  0  0  0  0  0  0  0  0  0  0
   13.0695    6.3705   20.0375 N   0  0  0  0  0  0  0  0  0  0  0  0
    9.1913    8.0876   21.8361 N   0  0  0  0  0  0  0  0  0  0  0  0
   10.4739    9.4813   20.2889 C   0  0  0  0  0  0  0  0  0  0  0  0
    7.5551    7.1270   23.1200 O   0  0  0  0  0  0  0  0  0  0  0  0
  1 11  4  0
  1 21  4  0
  2  4  1  0
  2  8  1  0
  2 11  1  0
  3 10  4  0
  3 14  4  0
  4  5  1  0
  4 18  2  0
  6 12  1  0
  6 17  4  0
  6 23  4  0
  7  9  1  0
  7 13  4  0
  7 19  4  0
  9 20  1  0
 10 19  4  0
 11 25  4  0
 13 14  4  0
 15 16  4  0
 15 17  4  0
 15 21  4  0
 16 24  1  0
 16 25  4  0
 20 24  1  0
 20 26  2  0
 21 23  4  0
 22 23  1  0
M  END
$$$$

 Created by Python create_sdf_string function

 26 28  0  0  0  0  0  0  0  0999 V2000
   12.4616    8.6700   19.4180 N   0  0  0  0  0  0  0  0  0  0  0  0
   11.8329   10.8148   18.6769 N   0  0  0  0  0  0  0  0  0  0  0  0
    6.1021    2.5564   21.0678 C   0  0  0  0  0  0  0  0  0  0  0  0
   10.9097   11.8051   18.4804 C   0  0  0  0  0  0  0  0  0  0  0  0
   11.2280   12.9135   17.5669 C   0  0  0  0  0  0  0  0  0  0  0  0
   12.3782    5.4231   20.7777 C   0  0  0  0  0  0  0  0  0  0  0  0
    7.7365    4.6508   21.6987 C   0  0  0  0  0  0  0  0  0  0  0  0
   13.0186   11.0102   18.0020 C   0  0  0  0  0  0  0  0  0  0  0  0
    8.6628    5.7088   21.8871 N   0  0  0  0  0  0  0  0  0  0  0  0
    5.6516    3.5258   21.9140 C   0  0  0  0  0  0  0  0  0  0  0  0
   11.5863    9.6815   19.4539 C   0  0  0  0  0  0  0  0  0  0  0  0
   12.9648    4.1543   20.9205 C   0  0  0  0  0  0  0  0  0  0  0  0
    8.2089    3.6265   20.8929 C   0  0  0  0  0  0  0  0  0  0  0  0
    7.3827    2.5724   20.5432 C   0  0  0  0  0  0  0  0  0  0  0  0
   11.1529    7.2750   20.8025 C   0  0  0  0  0  0  0  0  0  0  0  0
   10.2573    8.3215   20.9827 C   0  0  0  0  0  0  0  0  0  0  0  0
   11.1606    5.9378   21.2366 N   0  0  0  0  0  0  0  0  0  0  0  0
    9.8932   11.6736   19.0677 O   0  0  0  0  0  0  0  0  0  0  0  0
    6.4470    4.5850   22.2321 C   0  0  0  0  0  0  0  0  0  0  0  0
    8.4619    6.9895   22.2968 C   0  0  0  0  0  0  0  0  0  0  0  0
   12.2747    7.5102   20.0420 C   0  0  0  0  0  0  0  0  0  0  0  0
   14.2544    6.2142   19.4191 C   0  0  0  0  0  0  0  0  0  0  0  0
   13.0695    6.3705   20.0375 N   0  0  0  0  0  0  0  0  0  0  0  0
    9.1913    8.0876   21.8361 N   0  0  0  0  0  0  0  0  0  0  0  0
   10.4739    9.4813   20.2889 C   0  0  0  0  0  0  0  0  0  0  0  0
    7.5551    7.1270   23.1200 O   0  0  0  0  0  0  0  0  0  0  0  0
  1 11  4  0
  1 21  4  0
  2  4  1  0
  2  8  1  0
  2 11  1  0
  3 10  4  0
  3 14  4  0
  4  5  1  0
  4 18  2  0
  6 12  1  0
  6 17  4  0
  6 23  4  0
  7  9  1  0
  7 13  4  0
  7 19  4  0
  9 20  1  0
 10 19  4  0
 11 25  4  0
 13 14  4  0
 15 16  4  0
 15 17  4  0
 15 21  4  0
 16 24  1  0
 16 25  4  0
 20 24  1  0
 20 26  2  0
 21 23  4  0
 22 23  1  0
M  END
$$$$

 Created by Python create_sdf_string function

 26 28  0  0  0  0  0  0  0  0999 V2000
   12.4616    8.6700   19.4180 N   0  0  0  0  0  0  0  0  0  0  0  0
   11.8329   10.8148   18.6769 N   0  0  0  0  0  0  0  0  0  0  0  0
    6.1021    2.5564   21.0678 C   0  0  0  0  0  0  0  0  0  0  0  0
   10.9097   11.8051   18.4804 C   0  0  0  0  0  0  0  0  0  0  0  0
   11.2280   12.9135   17.5669 C   0  0  0  0  0  0  0  0  0  0  0  0
   12.3782    5.4231   20.7777 C   0  0  0  0  0  0  0  0  0  0  0  0
    7.7365    4.6508   21.6987 C   0  0  0  0  0  0  0  0  0  0  0  0
   13.0186   11.0102   18.0020 C   0  0  0  0  0  0  0  0  0  0  0  0
    8.6628    5.7088   21.8871 N   0  0  0  0  0  0  0  0  0  0  0  0
    5.6516    3.5258   21.9140 C   0  0  0  0  0  0  0  0  0  0  0  0
   11.5863    9.6815   19.4539 C   0  0  0  0  0  0  0  0  0  0  0  0
   12.9648    4.1543   20.9205 C   0  0  0  0  0  0  0  0  0  0  0  0
    8.2089    3.6265   20.8929 C   0  0  0  0  0  0  0  0  0  0  0  0
    7.3827    2.5724   20.5432 C   0  0  0  0  0  0  0  0  0  0  0  0
   11.1529    7.2750   20.8025 C   0  0  0  0  0  0  0  0  0  0  0  0
   10.2573    8.3215   20.9827 C   0  0  0  0  0  0  0  0  0  0  0  0
   11.1606    5.9378   21.2366 N   0  0  0  0  0  0  0  0  0  0  0  0
    9.8932   11.6736   19.0677 O   0  0  0  0  0  0  0  0  0  0  0  0
    6.4470    4.5850   22.2321 C   0  0  0  0  0  0  0  0  0  0  0  0
    8.4619    6.9895   22.2968 C   0  0  0  0  0  0  0  0  0  0  0  0
   12.2747    7.5102   20.0420 C   0  0  0  0  0  0  0  0  0  0  0  0
   14.2544    6.2142   19.4191 C   0  0  0  0  0  0  0  0  0  0  0  0
   13.0695    6.3705   20.0375 N   0  0  0  0  0  0  0  0  0  0  0  0
    9.1913    8.0876   21.8361 N   0  0  0  0  0  0  0  0  0  0  0  0
   10.4739    9.4813   20.2889 C   0  0  0  0  0  0  0  0  0  0  0  0
    7.5551    7.1270   23.1200 O   0  0  0  0  0  0  0  0  0  0  0  0
  1 11  4  0
  1 21  4  0
  2  4  1  0
  2  8  1  0
  2 11  1  0
  3 10  4  0
  3 14  4  0
  4  5  1  0
  4 18  2  0
  6 12  1  0
  6 17  4  0
  6 23  4  0
  7  9  1  0
  7 13  4  0
  7 19  4  0
  9 20  1  0
 10 19  4  0
 11 25  4  0
 13 14  4  0
 15 16  4  0
 15 17  4  0
 15 21  4  0
 16 24  1  0
 16 25  4  0
 20 24  1  0
 20 26  2  0
 21 23  4  0
 22 23  1  0
M  END
$$$$

 Created by Python create_sdf_string function

 26 28  0  0  0  0  0  0  0  0999 V2000
   12.4616    8.6700   19.4180 N   0  0  0  0  0  0  0  0  0  0  0  0
   11.8329   10.8148   18.6769 N   0  0  0  0  0  0  0  0  0  0  0  0
    6.1021    2.5564   21.0678 C   0  0  0  0  0  0  0  0  0  0  0  0
   10.9097   11.8051   18.4804 C   0  0  0  0  0  0  0  0  0  0  0  0
   11.2280   12.9135   17.5669 C   0  0  0  0  0  0  0  0  0  0  0  0
   12.3782    5.4231   20.7777 C   0  0  0  0  0  0  0  0  0  0  0  0
    7.7365    4.6508   21.6987 C   0  0  0  0  0  0  0  0  0  0  0  0
   13.0186   11.0102   18.0020 C   0  0  0  0  0  0  0  0  0  0  0  0
    8.6628    5.7088   21.8871 N   0  0  0  0  0  0  0  0  0  0  0  0
    5.6516    3.5258   21.9140 C   0  0  0  0  0  0  0  0  0  0  0  0
   11.5863    9.6815   19.4539 C   0  0  0  0  0  0  0  0  0  0  0  0
   12.9648    4.1543   20.9205 C   0  0  0  0  0  0  0  0  0  0  0  0
    8.2089    3.6265   20.8929 C   0  0  0  0  0  0  0  0  0  0  0  0
    7.3827    2.5724   20.5432 C   0  0  0  0  0  0  0  0  0  0  0  0
   11.1529    7.2750   20.8025 C   0  0  0  0  0  0  0  0  0  0  0  0
   10.2573    8.3215   20.9827 C   0  0  0  0  0  0  0  0  0  0  0  0
   11.1606    5.9378   21.2366 N   0  0  0  0  0  0  0  0  0  0  0  0
    9.8932   11.6736   19.0677 O   0  0  0  0  0  0  0  0  0  0  0  0
    6.4470    4.5850   22.2321 C   0  0  0  0  0  0  0  0  0  0  0  0
    8.4619    6.9895   22.2968 C   0  0  0  0  0  0  0  0  0  0  0  0
   12.2747    7.5102   20.0420 C   0  0  0  0  0  0  0  0  0  0  0  0
   14.2544    6.2142   19.4191 C   0  0  0  0  0  0  0  0  0  0  0  0
   13.0695    6.3705   20.0375 N   0  0  0  0  0  0  0  0  0  0  0  0
    9.1913    8.0876   21.8361 N   0  0  0  0  0  0  0  0  0  0  0  0
   10.4739    9.4813   20.2889 C   0  0  0  0  0  0  0  0  0  0  0  0
    7.5551    7.1270   23.1200 O   0  0  0  0  0  0  0  0  0  0  0  0
  1 11  4  0
  1 21  4  0
  2  4  1  0
  2  8  1  0
  2 11  1  0
  3 10  4  0
  3 14  4  0
  4  5  1  0
  4 18  2  0
  6 12  1  0
  6 17  4  0
  6 23  4  0
  7  9  1  0
  7 13  4  0
  7 19  4  0
  9 20  1  0
 10 19  4  0
 11 25  4  0
 13 14  4  0
 15 16  4  0
 15 17  4  0
 15 21  4  0
 16 24  1  0
 16 25  4  0
 20 24  1  0
 20 26  2  0
 21 23  4  0
 22 23  1  0
M  END
$$$$

 Created by Python create_sdf_string function

 26 28  0  0  0  0  0  0  0  0999 V2000
   12.4616    8.6700   19.4180 N   0  0  0  0  0  0  0  0  0  0  0  0
   11.8329   10.8148   18.6769 N   0  0  0  0  0  0  0  0  0  0  0  0
    6.1021    2.5564   21.0678 C   0  0  0  0  0  0  0  0  0  0  0  0
   10.9097   11.8051   18.4804 C   0  0  0  0  0  0  0  0  0  0  0  0
   11.2280   12.9135   17.5669 C   0  0  0  0  0  0  0  0  0  0  0  0
   12.3782    5.4231   20.7777 C   0  0  0  0  0  0  0  0  0  0  0  0
    7.7365    4.6508   21.6987 C   0  0  0  0  0  0  0  0  0  0  0  0
   13.0186   11.0102   18.0020 C   0  0  0  0  0  0  0  0  0  0  0  0
    8.6628    5.7088   21.8871 N   0  0  0  0  0  0  0  0  0  0  0  0
    5.6516    3.5258   21.9140 C   0  0  0  0  0  0  0  0  0  0  0  0
   11.5863    9.6815   19.4539 C   0  0  0  0  0  0  0  0  0  0  0  0
   12.9648    4.1543   20.9205 C   0  0  0  0  0  0  0  0  0  0  0  0
    8.2089    3.6265   20.8929 C   0  0  0  0  0  0  0  0  0  0  0  0
    7.3827    2.5724   20.5432 C   0  0  0  0  0  0  0  0  0  0  0  0
   11.1529    7.2750   20.8025 C   0  0  0  0  0  0  0  0  0  0  0  0
   10.2573    8.3215   20.9827 C   0  0  0  0  0  0  0  0  0  0  0  0
   11.1606    5.9378   21.2366 N   0  0  0  0  0  0  0  0  0  0  0  0
    9.8932   11.6736   19.0677 O   0  0  0  0  0  0  0  0  0  0  0  0
    6.4470    4.5850   22.2321 C   0  0  0  0  0  0  0  0  0  0  0  0
    8.4619    6.9895   22.2968 C   0  0  0  0  0  0  0  0  0  0  0  0
   12.2747    7.5102   20.0420 C   0  0  0  0  0  0  0  0  0  0  0  0
   14.2544    6.2142   19.4191 C   0  0  0  0  0  0  0  0  0  0  0  0
   13.0695    6.3705   20.0375 N   0  0  0  0  0  0  0  0  0  0  0  0
    9.1913    8.0876   21.8361 N   0  0  0  0  0  0  0  0  0  0  0  0
   10.4739    9.4813   20.2889 C   0  0  0  0  0  0  0  0  0  0  0  0
    7.5551    7.1270   23.1200 O   0  0  0  0  0  0  0  0  0  0  0  0
  1 11  4  0
  1 21  4  0
  2  4  1  0
  2  8  1  0
  2 11  1  0
  3 10  4  0
  3 14  4  0
  4  5  1  0
  4 18  2  0
  6 12  1  0
  6 17  4  0
  6 23  4  0
  7  9  1  0
  7 13  4  0
  7 19  4  0
  9 20  1  0
 10 19  4  0
 11 25  4  0
 13 14  4  0
 15 16  4  0
 15 17  4  0
 15 21  4  0
 16 24  1  0
 16 25  4  0
 20 24  1  0
 20 26  2  0
 21 23  4  0
 22 23  1  0
M  END
$$$$

 Created by Python create_sdf_string function

 26 28  0  0  0  0  0  0  0  0999 V2000
   12.4616    8.6700   19.4180 N   0  0  0  0  0  0  0  0  0  0  0  0
   11.8329   10.8148   18.6769 N   0  0  0  0  0  0  0  0  0  0  0  0
    6.1021    2.5564   21.0678 C   0  0  0  0  0  0  0  0  0  0  0  0
   10.9097   11.8051   18.4804 C   0  0  0  0  0  0  0  0  0  0  0  0
   11.2280   12.9135   17.5669 C   0  0  0  0  0  0  0  0  0  0  0  0
   12.3782    5.4231   20.7777 C   0  0  0  0  0  0  0  0  0  0  0  0
    7.7365    4.6508   21.6987 C   0  0  0  0  0  0  0  0  0  0  0  0
   13.0186   11.0102   18.0020 C   0  0  0  0  0  0  0  0  0  0  0  0
    8.6628    5.7088   21.8871 N   0  0  0  0  0  0  0  0  0  0  0  0
    5.6516    3.5258   21.9140 C   0  0  0  0  0  0  0  0  0  0  0  0
   11.5863    9.6815   19.4539 C   0  0  0  0  0  0  0  0  0  0  0  0
   12.9648    4.1543   20.9205 C   0  0  0  0  0  0  0  0  0  0  0  0
    8.2089    3.6265   20.8929 C   0  0  0  0  0  0  0  0  0  0  0  0
    7.3827    2.5724   20.5432 C   0  0  0  0  0  0  0  0  0  0  0  0
   11.1529    7.2750   20.8025 C   0  0  0  0  0  0  0  0  0  0  0  0
   10.2573    8.3215   20.9827 C   0  0  0  0  0  0  0  0  0  0  0  0
   11.1606    5.9378   21.2366 N   0  0  0  0  0  0  0  0  0  0  0  0
    9.8932   11.6736   19.0677 O   0  0  0  0  0  0  0  0  0  0  0  0
    6.4470    4.5850   22.2321 C   0  0  0  0  0  0  0  0  0  0  0  0
    8.4619    6.9895   22.2968 C   0  0  0  0  0  0  0  0  0  0  0  0
   12.2747    7.5102   20.0420 C   0  0  0  0  0  0  0  0  0  0  0  0
   14.2544    6.2142   19.4191 C   0  0  0  0  0  0  0  0  0  0  0  0
   13.0695    6.3705   20.0375 N   0  0  0  0  0  0  0  0  0  0  0  0
    9.1913    8.0876   21.8361 N   0  0  0  0  0  0  0  0  0  0  0  0
   10.4739    9.4813   20.2889 C   0  0  0  0  0  0  0  0  0  0  0  0
    7.5551    7.1270   23.1200 O   0  0  0  0  0  0  0  0  0  0  0  0
  1 11  4  0
  1 21  4  0
  2  4  1  0
  2  8  1  0
  2 11  1  0
  3 10  4  0
  3 14  4  0
  4  5  1  0
  4 18  2  0
  6 12  1  0
  6 17  4  0
  6 23  4  0
  7  9  1  0
  7 13  4  0
  7 19  4  0
  9 20  1  0
 10 19  4  0
 11 25  4  0
 13 14  4  0
 15 16  4  0
 15 17  4  0
 15 21  4  0
 16 24  1  0
 16 25  4  0
 20 24  1  0
 20 26  2  0
 21 23  4  0
 22 23  1  0
M  END
$$$$

 Created by Python create_sdf_string function

 26 28  0  0  0  0  0  0  0  0999 V2000
   12.4616    8.6700   19.4180 N   0  0  0  0  0  0  0  0  0  0  0  0
   11.8329   10.8148   18.6769 N   0  0  0  0  0  0  0  0  0  0  0  0
    6.1021    2.5564   21.0678 C   0  0  0  0  0  0  0  0  0  0  0  0
   10.9097   11.8051   18.4804 C   0  0  0  0  0  0  0  0  0  0  0  0
   11.2280   12.9135   17.5669 C   0  0  0  0  0  0  0  0  0  0  0  0
   12.3782    5.4231   20.7777 C   0  0  0  0  0  0  0  0  0  0  0  0
    7.7365    4.6508   21.6987 C   0  0  0  0  0  0  0  0  0  0  0  0
   13.0186   11.0102   18.0020 C   0  0  0  0  0  0  0  0  0  0  0  0
    8.6628    5.7088   21.8871 N   0  0  0  0  0  0  0  0  0  0  0  0
    5.6516    3.5258   21.9140 C   0  0  0  0  0  0  0  0  0  0  0  0
   11.5863    9.6815   19.4539 C   0  0  0  0  0  0  0  0  0  0  0  0
   12.9648    4.1543   20.9205 C   0  0  0  0  0  0  0  0  0  0  0  0
    8.2089    3.6265   20.8929 C   0  0  0  0  0  0  0  0  0  0  0  0
    7.3827    2.5724   20.5432 C   0  0  0  0  0  0  0  0  0  0  0  0
   11.1529    7.2750   20.8025 C   0  0  0  0  0  0  0  0  0  0  0  0
   10.2573    8.3215   20.9827 C   0  0  0  0  0  0  0  0  0  0  0  0
   11.1606    5.9378   21.2366 N   0  0  0  0  0  0  0  0  0  0  0  0
    9.8932   11.6736   19.0677 O   0  0  0  0  0  0  0  0  0  0  0  0
    6.4470    4.5850   22.2321 C   0  0  0  0  0  0  0  0  0  0  0  0
    8.4619    6.9895   22.2968 C   0  0  0  0  0  0  0  0  0  0  0  0
   12.2747    7.5102   20.0420 C   0  0  0  0  0  0  0  0  0  0  0  0
   14.2544    6.2142   19.4191 C   0  0  0  0  0  0  0  0  0  0  0  0
   13.0695    6.3705   20.0375 N   0  0  0  0  0  0  0  0  0  0  0  0
    9.1913    8.0876   21.8361 N   0  0  0  0  0  0  0  0  0  0  0  0
   10.4739    9.4813   20.2889 C   0  0  0  0  0  0  0  0  0  0  0  0
    7.5551    7.1270   23.1200 O   0  0  0  0  0  0  0  0  0  0  0  0
  1 11  4  0
  1 21  4  0
  2  4  1  0
  2  8  1  0
  2 11  1  0
  3 10  4  0
  3 14  4  0
  4  5  1  0
  4 18  2  0
  6 12  1  0
  6 17  4  0
  6 23  4  0
  7  9  1  0
  7 13  4  0
  7 19  4  0
  9 20  1  0
 10 19  4  0
 11 25  4  0
 13 14  4  0
 15 16  4  0
 15 17  4  0
 15 21  4  0
 16 24  1  0
 16 25  4  0
 20 24  1  0
 20 26  2  0
 21 23  4  0
 22 23  1  0
M  END
$$$$

 Created by Python create_sdf_string function

 26 28  0  0  0  0  0  0  0  0999 V2000
   12.4616    8.6700   19.4180 N   0  0  0  0  0  0  0  0  0  0  0  0
   11.8329   10.8148   18.6769 N   0  0  0  0  0  0  0  0  0  0  0  0
    6.1021    2.5564   21.0678 C   0  0  0  0  0  0  0  0  0  0  0  0
   10.9097   11.8051   18.4804 C   0  0  0  0  0  0  0  0  0  0  0  0
   11.2280   12.9135   17.5669 C   0  0  0  0  0  0  0  0  0  0  0  0
   12.3782    5.4231   20.7777 C   0  0  0  0  0  0  0  0  0  0  0  0
    7.7365    4.6508   21.6987 C   0  0  0  0  0  0  0  0  0  0  0  0
   13.0186   11.0102   18.0020 C   0  0  0  0  0  0  0  0  0  0  0  0
    8.6628    5.7088   21.8871 N   0  0  0  0  0  0  0  0  0  0  0  0
    5.6516    3.5258   21.9140 C   0  0  0  0  0  0  0  0  0  0  0  0
   11.5863    9.6815   19.4539 C   0  0  0  0  0  0  0  0  0  0  0  0
   12.9648    4.1543   20.9205 C   0  0  0  0  0  0  0  0  0  0  0  0
    8.2089    3.6265   20.8929 C   0  0  0  0  0  0  0  0  0  0  0  0
    7.3827    2.5724   20.5432 C   0  0  0  0  0  0  0  0  0  0  0  0
   11.1529    7.2750   20.8025 C   0  0  0  0  0  0  0  0  0  0  0  0
   10.2573    8.3215   20.9827 C   0  0  0  0  0  0  0  0  0  0  0  0
   11.1606    5.9378   21.2366 N   0  0  0  0  0  0  0  0  0  0  0  0
    9.8932   11.6736   19.0677 O   0  0  0  0  0  0  0  0  0  0  0  0
    6.4470    4.5850   22.2321 C   0  0  0  0  0  0  0  0  0  0  0  0
    8.4619    6.9895   22.2968 C   0  0  0  0  0  0  0  0  0  0  0  0
   12.2747    7.5102   20.0420 C   0  0  0  0  0  0  0  0  0  0  0  0
   14.2544    6.2142   19.4191 C   0  0  0  0  0  0  0  0  0  0  0  0
   13.0695    6.3705   20.0375 N   0  0  0  0  0  0  0  0  0  0  0  0
    9.1913    8.0876   21.8361 N   0  0  0  0  0  0  0  0  0  0  0  0
   10.4739    9.4813   20.2889 C   0  0  0  0  0  0  0  0  0  0  0  0
    7.5551    7.1270   23.1200 O   0  0  0  0  0  0  0  0  0  0  0  0
  1 11  4  0
  1 21  4  0
  2  4  1  0
  2  8  1  0
  2 11  1  0
  3 10  4  0
  3 14  4  0
  4  5  1  0
  4 18  2  0
  6 12  1  0
  6 17  4  0
  6 23  4  0
  7  9  1  0
  7 13  4  0
  7 19  4  0
  9 20  1  0
 10 19  4  0
 11 25  4  0
 13 14  4  0
 15 16  4  0
 15 17  4  0
 15 21  4  0
 16 24  1  0
 16 25  4  0
 20 24  1  0
 20 26  2  0
 21 23  4  0
 22 23  1  0
M  END
$$$$

 Created by Python create_sdf_string function

 26 28  0  0  0  0  0  0  0  0999 V2000
   12.4616    8.6700   19.4180 N   0  0  0  0  0  0  0  0  0  0  0  0
   11.8329   10.8148   18.6769 N   0  0  0  0  0  0  0  0  0  0  0  0
    6.1021    2.5564   21.0678 C   0  0  0  0  0  0  0  0  0  0  0  0
   10.9097   11.8051   18.4804 C   0  0  0  0  0  0  0  0  0  0  0  0
   11.2280   12.9135   17.5669 C   0  0  0  0  0  0  0  0  0  0  0  0
   12.3782    5.4231   20.7777 C   0  0  0  0  0  0  0  0  0  0  0  0
    7.7365    4.6508   21.6987 C   0  0  0  0  0  0  0  0  0  0  0  0
   13.0186   11.0102   18.0020 C   0  0  0  0  0  0  0  0  0  0  0  0
    8.6628    5.7088   21.8871 N   0  0  0  0  0  0  0  0  0  0  0  0
    5.6516    3.5258   21.9140 C   0  0  0  0  0  0  0  0  0  0  0  0
   11.5863    9.6815   19.4539 C   0  0  0  0  0  0  0  0  0  0  0  0
   12.9648    4.1543   20.9205 C   0  0  0  0  0  0  0  0  0  0  0  0
    8.2089    3.6265   20.8929 C   0  0  0  0  0  0  0  0  0  0  0  0
    7.3827    2.5724   20.5432 C   0  0  0  0  0  0  0  0  0  0  0  0
   11.1529    7.2750   20.8025 C   0  0  0  0  0  0  0  0  0  0  0  0
   10.2573    8.3215   20.9827 C   0  0  0  0  0  0  0  0  0  0  0  0
   11.1606    5.9378   21.2366 N   0  0  0  0  0  0  0  0  0  0  0  0
    9.8932   11.6736   19.0677 O   0  0  0  0  0  0  0  0  0  0  0  0
    6.4470    4.5850   22.2321 C   0  0  0  0  0  0  0  0  0  0  0  0
    8.4619    6.9895   22.2968 C   0  0  0  0  0  0  0  0  0  0  0  0
   12.2747    7.5102   20.0420 C   0  0  0  0  0  0  0  0  0  0  0  0
   14.2544    6.2142   19.4191 C   0  0  0  0  0  0  0  0  0  0  0  0
   13.0695    6.3705   20.0375 N   0  0  0  0  0  0  0  0  0  0  0  0
    9.1913    8.0876   21.8361 N   0  0  0  0  0  0  0  0  0  0  0  0
   10.4739    9.4813   20.2889 C   0  0  0  0  0  0  0  0  0  0  0  0
    7.5551    7.1270   23.1200 O   0  0  0  0  0  0  0  0  0  0  0  0
  1 11  4  0
  1 21  4  0
  2  4  1  0
  2  8  1  0
  2 11  1  0
  3 10  4  0
  3 14  4  0
  4  5  1  0
  4 18  2  0
  6 12  1  0
  6 17  4  0
  6 23  4  0
  7  9  1  0
  7 13  4  0
  7 19  4  0
  9 20  1  0
 10 19  4  0
 11 25  4  0
 13 14  4  0
 15 16  4  0
 15 17  4  0
 15 21  4  0
 16 24  1  0
 16 25  4  0
 20 24  1  0
 20 26  2  0
 21 23  4  0
 22 23  1  0
M  END
$$$$

 Created by Python create_sdf_string function

 26 28  0  0  0  0  0  0  0  0999 V2000
   12.4616    8.6700   19.4180 N   0  0  0  0  0  0  0  0  0  0  0  0
   11.8329   10.8148   18.6769 N   0  0  0  0  0  0  0  0  0  0  0  0
    6.1021    2.5564   21.0678 C   0  0  0  0  0  0  0  0  0  0  0  0
   10.9097   11.8051   18.4804 C   0  0  0  0  0  0  0  0  0  0  0  0
   11.2280   12.9135   17.5669 C   0  0  0  0  0  0  0  0  0  0  0  0
   12.3782    5.4231   20.7777 C   0  0  0  0  0  0  0  0  0  0  0  0
    7.7365    4.6508   21.6987 C   0  0  0  0  0  0  0  0  0  0  0  0
   13.0186   11.0102   18.0020 C   0  0  0  0  0  0  0  0  0  0  0  0
    8.6628    5.7088   21.8871 N   0  0  0  0  0  0  0  0  0  0  0  0
    5.6516    3.5258   21.9140 C   0  0  0  0  0  0  0  0  0  0  0  0
   11.5863    9.6815   19.4539 C   0  0  0  0  0  0  0  0  0  0  0  0
   12.9648    4.1543   20.9205 C   0  0  0  0  0  0  0  0  0  0  0  0
    8.2089    3.6265   20.8929 C   0  0  0  0  0  0  0  0  0  0  0  0
    7.3827    2.5724   20.5432 C   0  0  0  0  0  0  0  0  0  0  0  0
   11.1529    7.2750   20.8025 C   0  0  0  0  0  0  0  0  0  0  0  0
   10.2573    8.3215   20.9827 C   0  0  0  0  0  0  0  0  0  0  0  0
   11.1606    5.9378   21.2366 N   0  0  0  0  0  0  0  0  0  0  0  0
    9.8932   11.6736   19.0677 O   0  0  0  0  0  0  0  0  0  0  0  0
    6.4470    4.5850   22.2321 C   0  0  0  0  0  0  0  0  0  0  0  0
    8.4619    6.9895   22.2968 C   0  0  0  0  0  0  0  0  0  0  0  0
   12.2747    7.5102   20.0420 C   0  0  0  0  0  0  0  0  0  0  0  0
   14.2544    6.2142   19.4191 C   0  0  0  0  0  0  0  0  0  0  0  0
   13.0695    6.3705   20.0375 N   0  0  0  0  0  0  0  0  0  0  0  0
    9.1913    8.0876   21.8361 N   0  0  0  0  0  0  0  0  0  0  0  0
   10.4739    9.4813   20.2889 C   0  0  0  0  0  0  0  0  0  0  0  0
    7.5551    7.1270   23.1200 O   0  0  0  0  0  0  0  0  0  0  0  0
  1 11  4  0
  1 21  4  0
  2  4  1  0
  2  8  1  0
  2 11  1  0
  3 10  4  0
  3 14  4  0
  4  5  1  0
  4 18  2  0
  6 12  1  0
  6 17  4  0
  6 23  4  0
  7  9  1  0
  7 13  4  0
  7 19  4  0
  9 20  1  0
 10 19  4  0
 11 25  4  0
 13 14  4  0
 15 16  4  0
 15 17  4  0
 15 21  4  0
 16 24  1  0
 16 25  4  0
 20 24  1  0
 20 26  2  0
 21 23  4  0
 22 23  1  0
M  END
$$$$

 Created by Python create_sdf_string function

 26 28  0  0  0  0  0  0  0  0999 V2000
   12.4616    8.6700   19.4180 N   0  0  0  0  0  0  0  0  0  0  0  0
   11.8329   10.8148   18.6769 N   0  0  0  0  0  0  0  0  0  0  0  0
    6.1021    2.5564   21.0678 C   0  0  0  0  0  0  0  0  0  0  0  0
   10.9097   11.8051   18.4804 C   0  0  0  0  0  0  0  0  0  0  0  0
   11.2280   12.9135   17.5669 C   0  0  0  0  0  0  0  0  0  0  0  0
   12.3782    5.4231   20.7777 C   0  0  0  0  0  0  0  0  0  0  0  0
    7.7365    4.6508   21.6987 C   0  0  0  0  0  0  0  0  0  0  0  0
   13.0186   11.0102   18.0020 C   0  0  0  0  0  0  0  0  0  0  0  0
    8.6628    5.7088   21.8871 N   0  0  0  0  0  0  0  0  0  0  0  0
    5.6516    3.5258   21.9140 C   0  0  0  0  0  0  0  0  0  0  0  0
   11.5863    9.6815   19.4539 C   0  0  0  0  0  0  0  0  0  0  0  0
   12.9648    4.1543   20.9205 C   0  0  0  0  0  0  0  0  0  0  0  0
    8.2089    3.6265   20.8929 C   0  0  0  0  0  0  0  0  0  0  0  0
    7.3827    2.5724   20.5432 C   0  0  0  0  0  0  0  0  0  0  0  0
   11.1529    7.2750   20.8025 C   0  0  0  0  0  0  0  0  0  0  0  0
   10.2573    8.3215   20.9827 C   0  0  0  0  0  0  0  0  0  0  0  0
   11.1606    5.9378   21.2366 N   0  0  0  0  0  0  0  0  0  0  0  0
    9.8932   11.6736   19.0677 O   0  0  0  0  0  0  0  0  0  0  0  0
    6.4470    4.5850   22.2321 C   0  0  0  0  0  0  0  0  0  0  0  0
    8.4619    6.9895   22.2968 C   0  0  0  0  0  0  0  0  0  0  0  0
   12.2747    7.5102   20.0420 C   0  0  0  0  0  0  0  0  0  0  0  0
   14.2544    6.2142   19.4191 C   0  0  0  0  0  0  0  0  0  0  0  0
   13.0695    6.3705   20.0375 N   0  0  0  0  0  0  0  0  0  0  0  0
    9.1913    8.0876   21.8361 N   0  0  0  0  0  0  0  0  0  0  0  0
   10.4739    9.4813   20.2889 C   0  0  0  0  0  0  0  0  0  0  0  0
    7.5551    7.1270   23.1200 O   0  0  0  0  0  0  0  0  0  0  0  0
  1 11  4  0
  1 21  4  0
  2  4  1  0
  2  8  1  0
  2 11  1  0
  3 10  4  0
  3 14  4  0
  4  5  1  0
  4 18  2  0
  6 12  1  0
  6 17  4  0
  6 23  4  0
  7  9  1  0
  7 13  4  0
  7 19  4  0
  9 20  1  0
 10 19  4  0
 11 25  4  0
 13 14  4  0
 15 16  4  0
 15 17  4  0
 15 21  4  0
 16 24  1  0
 16 25  4  0
 20 24  1  0
 20 26  2  0
 21 23  4  0
 22 23  1  0
M  END
$$$$

 Created by Python create_sdf_string function

 26 28  0  0  0  0  0  0  0  0999 V2000
   12.4616    8.6700   19.4180 N   0  0  0  0  0  0  0  0  0  0  0  0
   11.8329   10.8148   18.6769 N   0  0  0  0  0  0  0  0  0  0  0  0
    6.1021    2.5564   21.0678 C   0  0  0  0  0  0  0  0  0  0  0  0
   10.9097   11.8051   18.4804 C   0  0  0  0  0  0  0  0  0  0  0  0
   11.2280   12.9135   17.5669 C   0  0  0  0  0  0  0  0  0  0  0  0
   12.3782    5.4231   20.7777 C   0  0  0  0  0  0  0  0  0  0  0  0
    7.7365    4.6508   21.6987 C   0  0  0  0  0  0  0  0  0  0  0  0
   13.0186   11.0102   18.0020 C   0  0  0  0  0  0  0  0  0  0  0  0
    8.6628    5.7088   21.8871 N   0  0  0  0  0  0  0  0  0  0  0  0
    5.6516    3.5258   21.9140 C   0  0  0  0  0  0  0  0  0  0  0  0
   11.5863    9.6815   19.4539 C   0  0  0  0  0  0  0  0  0  0  0  0
   12.9648    4.1543   20.9205 C   0  0  0  0  0  0  0  0  0  0  0  0
    8.2089    3.6265   20.8929 C   0  0  0  0  0  0  0  0  0  0  0  0
    7.3827    2.5724   20.5432 C   0  0  0  0  0  0  0  0  0  0  0  0
   11.1529    7.2750   20.8025 C   0  0  0  0  0  0  0  0  0  0  0  0
   10.2573    8.3215   20.9827 C   0  0  0  0  0  0  0  0  0  0  0  0
   11.1606    5.9378   21.2366 N   0  0  0  0  0  0  0  0  0  0  0  0
    9.8932   11.6736   19.0677 O   0  0  0  0  0  0  0  0  0  0  0  0
    6.4470    4.5850   22.2321 C   0  0  0  0  0  0  0  0  0  0  0  0
    8.4619    6.9895   22.2968 C   0  0  0  0  0  0  0  0  0  0  0  0
   12.2747    7.5102   20.0420 C   0  0  0  0  0  0  0  0  0  0  0  0
   14.2544    6.2142   19.4191 C   0  0  0  0  0  0  0  0  0  0  0  0
   13.0695    6.3705   20.0375 N   0  0  0  0  0  0  0  0  0  0  0  0
    9.1913    8.0876   21.8361 N   0  0  0  0  0  0  0  0  0  0  0  0
   10.4739    9.4813   20.2889 C   0  0  0  0  0  0  0  0  0  0  0  0
    7.5551    7.1270   23.1200 O   0  0  0  0  0  0  0  0  0  0  0  0
  1 11  4  0
  1 21  4  0
  2  4  1  0
  2  8  1  0
  2 11  1  0
  3 10  4  0
  3 14  4  0
  4  5  1  0
  4 18  2  0
  6 12  1  0
  6 17  4  0
  6 23  4  0
  7  9  1  0
  7 13  4  0
  7 19  4  0
  9 20  1  0
 10 19  4  0
 11 25  4  0
 13 14  4  0
 15 16  4  0
 15 17  4  0
 15 21  4  0
 16 24  1  0
 16 25  4  0
 20 24  1  0
 20 26  2  0
 21 23  4  0
 22 23  1  0
M  END
$$$$

 Created by Python create_sdf_string function

 26 28  0  0  0  0  0  0  0  0999 V2000
   12.4616    8.6700   19.4180 N   0  0  0  0  0  0  0  0  0  0  0  0
   11.8329   10.8148   18.6769 N   0  0  0  0  0  0  0  0  0  0  0  0
    6.1021    2.5564   21.0678 C   0  0  0  0  0  0  0  0  0  0  0  0
   10.9097   11.8051   18.4804 C   0  0  0  0  0  0  0  0  0  0  0  0
   11.2280   12.9135   17.5669 C   0  0  0  0  0  0  0  0  0  0  0  0
   12.3782    5.4231   20.7777 C   0  0  0  0  0  0  0  0  0  0  0  0
    7.7365    4.6508   21.6987 C   0  0  0  0  0  0  0  0  0  0  0  0
   13.0186   11.0102   18.0020 C   0  0  0  0  0  0  0  0  0  0  0  0
    8.6628    5.7088   21.8871 N   0  0  0  0  0  0  0  0  0  0  0  0
    5.6516    3.5258   21.9140 C   0  0  0  0  0  0  0  0  0  0  0  0
   11.5863    9.6815   19.4539 C   0  0  0  0  0  0  0  0  0  0  0  0
   12.9648    4.1543   20.9205 C   0  0  0  0  0  0  0  0  0  0  0  0
    8.2089    3.6265   20.8929 C   0  0  0  0  0  0  0  0  0  0  0  0
    7.3827    2.5724   20.5432 C   0  0  0  0  0  0  0  0  0  0  0  0
   11.1529    7.2750   20.8025 C   0  0  0  0  0  0  0  0  0  0  0  0
   10.2573    8.3215   20.9827 C   0  0  0  0  0  0  0  0  0  0  0  0
   11.1606    5.9378   21.2366 N   0  0  0  0  0  0  0  0  0  0  0  0
    9.8932   11.6736   19.0677 O   0  0  0  0  0  0  0  0  0  0  0  0
    6.4470    4.5850   22.2321 C   0  0  0  0  0  0  0  0  0  0  0  0
    8.4619    6.9895   22.2968 C   0  0  0  0  0  0  0  0  0  0  0  0
   12.2747    7.5102   20.0420 C   0  0  0  0  0  0  0  0  0  0  0  0
   14.2544    6.2142   19.4191 C   0  0  0  0  0  0  0  0  0  0  0  0
   13.0695    6.3705   20.0375 N   0  0  0  0  0  0  0  0  0  0  0  0
    9.1913    8.0876   21.8361 N   0  0  0  0  0  0  0  0  0  0  0  0
   10.4739    9.4813   20.2889 C   0  0  0  0  0  0  0  0  0  0  0  0
    7.5551    7.1270   23.1200 O   0  0  0  0  0  0  0  0  0  0  0  0
  1 11  4  0
  1 21  4  0
  2  4  1  0
  2  8  1  0
  2 11  1  0
  3 10  4  0
  3 14  4  0
  4  5  1  0
  4 18  2  0
  6 12  1  0
  6 17  4  0
  6 23  4  0
  7  9  1  0
  7 13  4  0
  7 19  4  0
  9 20  1  0
 10 19  4  0
 11 25  4  0
 13 14  4  0
 15 16  4  0
 15 17  4  0
 15 21  4  0
 16 24  1  0
 16 25  4  0
 20 24  1  0
 20 26  2  0
 21 23  4  0
 22 23  1  0
M  END
$$$$

 Created by Python create_sdf_string function

 26 28  0  0  0  0  0  0  0  0999 V2000
   12.4616    8.6700   19.4180 N   0  0  0  0  0  0  0  0  0  0  0  0
   11.8329   10.8148   18.6769 N   0  0  0  0  0  0  0  0  0  0  0  0
    6.1021    2.5564   21.0678 C   0  0  0  0  0  0  0  0  0  0  0  0
   10.9097   11.8051   18.4804 C   0  0  0  0  0  0  0  0  0  0  0  0
   11.2280   12.9135   17.5669 C   0  0  0  0  0  0  0  0  0  0  0  0
   12.3782    5.4231   20.7777 C   0  0  0  0  0  0  0  0  0  0  0  0
    7.7365    4.6508   21.6987 C   0  0  0  0  0  0  0  0  0  0  0  0
   13.0186   11.0102   18.0020 C   0  0  0  0  0  0  0  0  0  0  0  0
    8.6628    5.7088   21.8871 N   0  0  0  0  0  0  0  0  0  0  0  0
    5.6516    3.5258   21.9140 C   0  0  0  0  0  0  0  0  0  0  0  0
   11.5863    9.6815   19.4539 C   0  0  0  0  0  0  0  0  0  0  0  0
   12.9648    4.1543   20.9205 C   0  0  0  0  0  0  0  0  0  0  0  0
    8.2089    3.6265   20.8929 C   0  0  0  0  0  0  0  0  0  0  0  0
    7.3827    2.5724   20.5432 C   0  0  0  0  0  0  0  0  0  0  0  0
   11.1529    7.2750   20.8025 C   0  0  0  0  0  0  0  0  0  0  0  0
   10.2573    8.3215   20.9827 C   0  0  0  0  0  0  0  0  0  0  0  0
   11.1606    5.9378   21.2366 N   0  0  0  0  0  0  0  0  0  0  0  0
    9.8932   11.6736   19.0677 O   0  0  0  0  0  0  0  0  0  0  0  0
    6.4470    4.5850   22.2321 C   0  0  0  0  0  0  0  0  0  0  0  0
    8.4619    6.9895   22.2968 C   0  0  0  0  0  0  0  0  0  0  0  0
   12.2747    7.5102   20.0420 C   0  0  0  0  0  0  0  0  0  0  0  0
   14.2544    6.2142   19.4191 C   0  0  0  0  0  0  0  0  0  0  0  0
   13.0695    6.3705   20.0375 N   0  0  0  0  0  0  0  0  0  0  0  0
    9.1913    8.0876   21.8361 N   0  0  0  0  0  0  0  0  0  0  0  0
   10.4739    9.4813   20.2889 C   0  0  0  0  0  0  0  0  0  0  0  0
    7.5551    7.1270   23.1200 O   0  0  0  0  0  0  0  0  0  0  0  0
  1 11  4  0
  1 21  4  0
  2  4  1  0
  2  8  1  0
  2 11  1  0
  3 10  4  0
  3 14  4  0
  4  5  1  0
  4 18  2  0
  6 12  1  0
  6 17  4  0
  6 23  4  0
  7  9  1  0
  7 13  4  0
  7 19  4  0
  9 20  1  0
 10 19  4  0
 11 25  4  0
 13 14  4  0
 15 16  4  0
 15 17  4  0
 15 21  4  0
 16 24  1  0
 16 25  4  0
 20 24  1  0
 20 26  2  0
 21 23  4  0
 22 23  1  0
M  END
$$$$

 Created by Python create_sdf_string function

 26 28  0  0  0  0  0  0  0  0999 V2000
   12.4616    8.6700   19.4180 N   0  0  0  0  0  0  0  0  0  0  0  0
   11.8329   10.8148   18.6769 N   0  0  0  0  0  0  0  0  0  0  0  0
    6.1021    2.5564   21.0678 C   0  0  0  0  0  0  0  0  0  0  0  0
   10.9097   11.8051   18.4804 C   0  0  0  0  0  0  0  0  0  0  0  0
   11.2280   12.9135   17.5669 C   0  0  0  0  0  0  0  0  0  0  0  0
   12.3782    5.4231   20.7777 C   0  0  0  0  0  0  0  0  0  0  0  0
    7.7365    4.6508   21.6987 C   0  0  0  0  0  0  0  0  0  0  0  0
   13.0186   11.0102   18.0020 C   0  0  0  0  0  0  0  0  0  0  0  0
    8.6628    5.7088   21.8871 N   0  0  0  0  0  0  0  0  0  0  0  0
    5.6516    3.5258   21.9140 C   0  0  0  0  0  0  0  0  0  0  0  0
   11.5863    9.6815   19.4539 C   0  0  0  0  0  0  0  0  0  0  0  0
   12.9648    4.1543   20.9205 C   0  0  0  0  0  0  0  0  0  0  0  0
    8.2089    3.6265   20.8929 C   0  0  0  0  0  0  0  0  0  0  0  0
    7.3827    2.5724   20.5432 C   0  0  0  0  0  0  0  0  0  0  0  0
   11.1529    7.2750   20.8025 C   0  0  0  0  0  0  0  0  0  0  0  0
   10.2573    8.3215   20.9827 C   0  0  0  0  0  0  0  0  0  0  0  0
   11.1606    5.9378   21.2366 N   0  0  0  0  0  0  0  0  0  0  0  0
    9.8932   11.6736   19.0677 O   0  0  0  0  0  0  0  0  0  0  0  0
    6.4470    4.5850   22.2321 C   0  0  0  0  0  0  0  0  0  0  0  0
    8.4619    6.9895   22.2968 C   0  0  0  0  0  0  0  0  0  0  0  0
   12.2747    7.5102   20.0420 C   0  0  0  0  0  0  0  0  0  0  0  0
   14.2544    6.2142   19.4191 C   0  0  0  0  0  0  0  0  0  0  0  0
   13.0695    6.3705   20.0375 N   0  0  0  0  0  0  0  0  0  0  0  0
    9.1913    8.0876   21.8361 N   0  0  0  0  0  0  0  0  0  0  0  0
   10.4739    9.4813   20.2889 C   0  0  0  0  0  0  0  0  0  0  0  0
    7.5551    7.1270   23.1200 O   0  0  0  0  0  0  0  0  0  0  0  0
  1 11  4  0
  1 21  4  0
  2  4  1  0
  2  8  1  0
  2 11  1  0
  3 10  4  0
  3 14  4  0
  4  5  1  0
  4 18  2  0
  6 12  1  0
  6 17  4  0
  6 23  4  0
  7  9  1  0
  7 13  4  0
  7 19  4  0
  9 20  1  0
 10 19  4  0
 11 25  4  0
 13 14  4  0
 15 16  4  0
 15 17  4  0
 15 21  4  0
 16 24  1  0
 16 25  4  0
 20 24  1  0
 20 26  2  0
 21 23  4  0
 22 23  1  0
M  END
$$$$

 Created by Python create_sdf_string function

 26 28  0  0  0  0  0  0  0  0999 V2000
   12.4616    8.6700   19.4180 N   0  0  0  0  0  0  0  0  0  0  0  0
   11.8329   10.8148   18.6769 N   0  0  0  0  0  0  0  0  0  0  0  0
    6.1021    2.5564   21.0678 C   0  0  0  0  0  0  0  0  0  0  0  0
   10.9097   11.8051   18.4804 C   0  0  0  0  0  0  0  0  0  0  0  0
   11.2280   12.9135   17.5669 C   0  0  0  0  0  0  0  0  0  0  0  0
   12.3782    5.4231   20.7777 C   0  0  0  0  0  0  0  0  0  0  0  0
    7.7365    4.6508   21.6987 C   0  0  0  0  0  0  0  0  0  0  0  0
   13.0186   11.0102   18.0020 C   0  0  0  0  0  0  0  0  0  0  0  0
    8.6628    5.7088   21.8871 N   0  0  0  0  0  0  0  0  0  0  0  0
    5.6516    3.5258   21.9140 C   0  0  0  0  0  0  0  0  0  0  0  0
   11.5863    9.6815   19.4539 C   0  0  0  0  0  0  0  0  0  0  0  0
   12.9648    4.1543   20.9205 C   0  0  0  0  0  0  0  0  0  0  0  0
    8.2089    3.6265   20.8929 C   0  0  0  0  0  0  0  0  0  0  0  0
    7.3827    2.5724   20.5432 C   0  0  0  0  0  0  0  0  0  0  0  0
   11.1529    7.2750   20.8025 C   0  0  0  0  0  0  0  0  0  0  0  0
   10.2573    8.3215   20.9827 C   0  0  0  0  0  0  0  0  0  0  0  0
   11.1606    5.9378   21.2366 N   0  0  0  0  0  0  0  0  0  0  0  0
    9.8932   11.6736   19.0677 O   0  0  0  0  0  0  0  0  0  0  0  0
    6.4470    4.5850   22.2321 C   0  0  0  0  0  0  0  0  0  0  0  0
    8.4619    6.9895   22.2968 C   0  0  0  0  0  0  0  0  0  0  0  0
   12.2747    7.5102   20.0420 C   0  0  0  0  0  0  0  0  0  0  0  0
   14.2544    6.2142   19.4191 C   0  0  0  0  0  0  0  0  0  0  0  0
   13.0695    6.3705   20.0375 N   0  0  0  0  0  0  0  0  0  0  0  0
    9.1913    8.0876   21.8361 N   0  0  0  0  0  0  0  0  0  0  0  0
   10.4739    9.4813   20.2889 C   0  0  0  0  0  0  0  0  0  0  0  0
    7.5551    7.1270   23.1200 O   0  0  0  0  0  0  0  0  0  0  0  0
  1 11  4  0
  1 21  4  0
  2  4  1  0
  2  8  1  0
  2 11  1  0
  3 10  4  0
  3 14  4  0
  4  5  1  0
  4 18  2  0
  6 12  1  0
  6 17  4  0
  6 23  4  0
  7  9  1  0
  7 13  4  0
  7 19  4  0
  9 20  1  0
 10 19  4  0
 11 25  4  0
 13 14  4  0
 15 16  4  0
 15 17  4  0
 15 21  4  0
 16 24  1  0
 16 25  4  0
 20 24  1  0
 20 26  2  0
 21 23  4  0
 22 23  1  0
M  END
$$$$

 Created by Python create_sdf_string function

 26 28  0  0  0  0  0  0  0  0999 V2000
   12.4616    8.6700   19.4180 N   0  0  0  0  0  0  0  0  0  0  0  0
   11.8329   10.8148   18.6769 N   0  0  0  0  0  0  0  0  0  0  0  0
    6.1021    2.5564   21.0678 C   0  0  0  0  0  0  0  0  0  0  0  0
   10.9097   11.8051   18.4804 C   0  0  0  0  0  0  0  0  0  0  0  0
   11.2280   12.9135   17.5669 C   0  0  0  0  0  0  0  0  0  0  0  0
   12.3782    5.4231   20.7777 C   0  0  0  0  0  0  0  0  0  0  0  0
    7.7365    4.6508   21.6987 C   0  0  0  0  0  0  0  0  0  0  0  0
   13.0186   11.0102   18.0020 C   0  0  0  0  0  0  0  0  0  0  0  0
    8.6628    5.7088   21.8871 N   0  0  0  0  0  0  0  0  0  0  0  0
    5.6516    3.5258   21.9140 C   0  0  0  0  0  0  0  0  0  0  0  0
   11.5863    9.6815   19.4539 C   0  0  0  0  0  0  0  0  0  0  0  0
   12.9648    4.1543   20.9205 C   0  0  0  0  0  0  0  0  0  0  0  0
    8.2089    3.6265   20.8929 C   0  0  0  0  0  0  0  0  0  0  0  0
    7.3827    2.5724   20.5432 C   0  0  0  0  0  0  0  0  0  0  0  0
   11.1529    7.2750   20.8025 C   0  0  0  0  0  0  0  0  0  0  0  0
   10.2573    8.3215   20.9827 C   0  0  0  0  0  0  0  0  0  0  0  0
   11.1606    5.9378   21.2366 N   0  0  0  0  0  0  0  0  0  0  0  0
    9.8932   11.6736   19.0677 O   0  0  0  0  0  0  0  0  0  0  0  0
    6.4470    4.5850   22.2321 C   0  0  0  0  0  0  0  0  0  0  0  0
    8.4619    6.9895   22.2968 C   0  0  0  0  0  0  0  0  0  0  0  0
   12.2747    7.5102   20.0420 C   0  0  0  0  0  0  0  0  0  0  0  0
   14.2544    6.2142   19.4191 C   0  0  0  0  0  0  0  0  0  0  0  0
   13.0695    6.3705   20.0375 N   0  0  0  0  0  0  0  0  0  0  0  0
    9.1913    8.0876   21.8361 N   0  0  0  0  0  0  0  0  0  0  0  0
   10.4739    9.4813   20.2889 C   0  0  0  0  0  0  0  0  0  0  0  0
    7.5551    7.1270   23.1200 O   0  0  0  0  0  0  0  0  0  0  0  0
  1 11  4  0
  1 21  4  0
  2  4  1  0
  2  8  1  0
  2 11  1  0
  3 10  4  0
  3 14  4  0
  4  5  1  0
  4 18  2  0
  6 12  1  0
  6 17  4  0
  6 23  4  0
  7  9  1  0
  7 13  4  0
  7 19  4  0
  9 20  1  0
 10 19  4  0
 11 25  4  0
 13 14  4  0
 15 16  4  0
 15 17  4  0
 15 21  4  0
 16 24  1  0
 16 25  4  0
 20 24  1  0
 20 26  2  0
 21 23  4  0
 22 23  1  0
M  END
$$$$

 Created by Python create_sdf_string function

 26 28  0  0  0  0  0  0  0  0999 V2000
   12.4616    8.6700   19.4180 N   0  0  0  0  0  0  0  0  0  0  0  0
   11.8329   10.8148   18.6769 N   0  0  0  0  0  0  0  0  0  0  0  0
    6.1021    2.5564   21.0678 C   0  0  0  0  0  0  0  0  0  0  0  0
   10.9097   11.8051   18.4804 C   0  0  0  0  0  0  0  0  0  0  0  0
   11.2280   12.9135   17.5669 C   0  0  0  0  0  0  0  0  0  0  0  0
   12.3782    5.4231   20.7777 C   0  0  0  0  0  0  0  0  0  0  0  0
    7.7365    4.6508   21.6987 C   0  0  0  0  0  0  0  0  0  0  0  0
   13.0186   11.0102   18.0020 C   0  0  0  0  0  0  0  0  0  0  0  0
    8.6628    5.7088   21.8871 N   0  0  0  0  0  0  0  0  0  0  0  0
    5.6516    3.5258   21.9140 C   0  0  0  0  0  0  0  0  0  0  0  0
   11.5863    9.6815   19.4539 C   0  0  0  0  0  0  0  0  0  0  0  0
   12.9648    4.1543   20.9205 C   0  0  0  0  0  0  0  0  0  0  0  0
    8.2089    3.6265   20.8929 C   0  0  0  0  0  0  0  0  0  0  0  0
    7.3827    2.5724   20.5432 C   0  0  0  0  0  0  0  0  0  0  0  0
   11.1529    7.2750   20.8025 C   0  0  0  0  0  0  0  0  0  0  0  0
   10.2573    8.3215   20.9827 C   0  0  0  0  0  0  0  0  0  0  0  0
   11.1606    5.9378   21.2366 N   0  0  0  0  0  0  0  0  0  0  0  0
    9.8932   11.6736   19.0677 O   0  0  0  0  0  0  0  0  0  0  0  0
    6.4470    4.5850   22.2321 C   0  0  0  0  0  0  0  0  0  0  0  0
    8.4619    6.9895   22.2968 C   0  0  0  0  0  0  0  0  0  0  0  0
   12.2747    7.5102   20.0420 C   0  0  0  0  0  0  0  0  0  0  0  0
   14.2544    6.2142   19.4191 C   0  0  0  0  0  0  0  0  0  0  0  0
   13.0695    6.3705   20.0375 N   0  0  0  0  0  0  0  0  0  0  0  0
    9.1913    8.0876   21.8361 N   0  0  0  0  0  0  0  0  0  0  0  0
   10.4739    9.4813   20.2889 C   0  0  0  0  0  0  0  0  0  0  0  0
    7.5551    7.1270   23.1200 O   0  0  0  0  0  0  0  0  0  0  0  0
  1 11  4  0
  1 21  4  0
  2  4  1  0
  2  8  1  0
  2 11  1  0
  3 10  4  0
  3 14  4  0
  4  5  1  0
  4 18  2  0
  6 12  1  0
  6 17  4  0
  6 23  4  0
  7  9  1  0
  7 13  4  0
  7 19  4  0
  9 20  1  0
 10 19  4  0
 11 25  4  0
 13 14  4  0
 15 16  4  0
 15 17  4  0
 15 21  4  0
 16 24  1  0
 16 25  4  0
 20 24  1  0
 20 26  2  0
 21 23  4  0
 22 23  1  0
M  END
$$$$

 Created by Python create_sdf_string function

 26 28  0  0  0  0  0  0  0  0999 V2000
   12.4616    8.6700   19.4180 N   0  0  0  0  0  0  0  0  0  0  0  0
   11.8329   10.8148   18.6769 N   0  0  0  0  0  0  0  0  0  0  0  0
    6.1021    2.5564   21.0678 C   0  0  0  0  0  0  0  0  0  0  0  0
   10.9097   11.8051   18.4804 C   0  0  0  0  0  0  0  0  0  0  0  0
   11.2280   12.9135   17.5669 C   0  0  0  0  0  0  0  0  0  0  0  0
   12.3782    5.4231   20.7777 C   0  0  0  0  0  0  0  0  0  0  0  0
    7.7365    4.6508   21.6987 C   0  0  0  0  0  0  0  0  0  0  0  0
   13.0186   11.0102   18.0020 C   0  0  0  0  0  0  0  0  0  0  0  0
    8.6628    5.7088   21.8871 N   0  0  0  0  0  0  0  0  0  0  0  0
    5.6516    3.5258   21.9140 C   0  0  0  0  0  0  0  0  0  0  0  0
   11.5863    9.6815   19.4539 C   0  0  0  0  0  0  0  0  0  0  0  0
   12.9648    4.1543   20.9205 C   0  0  0  0  0  0  0  0  0  0  0  0
    8.2089    3.6265   20.8929 C   0  0  0  0  0  0  0  0  0  0  0  0
    7.3827    2.5724   20.5432 C   0  0  0  0  0  0  0  0  0  0  0  0
   11.1529    7.2750   20.8025 C   0  0  0  0  0  0  0  0  0  0  0  0
   10.2573    8.3215   20.9827 C   0  0  0  0  0  0  0  0  0  0  0  0
   11.1606    5.9378   21.2366 N   0  0  0  0  0  0  0  0  0  0  0  0
    9.8932   11.6736   19.0677 O   0  0  0  0  0  0  0  0  0  0  0  0
    6.4470    4.5850   22.2321 C   0  0  0  0  0  0  0  0  0  0  0  0
    8.4619    6.9895   22.2968 C   0  0  0  0  0  0  0  0  0  0  0  0
   12.2747    7.5102   20.0420 C   0  0  0  0  0  0  0  0  0  0  0  0
   14.2544    6.2142   19.4191 C   0  0  0  0  0  0  0  0  0  0  0  0
   13.0695    6.3705   20.0375 N   0  0  0  0  0  0  0  0  0  0  0  0
    9.1913    8.0876   21.8361 N   0  0  0  0  0  0  0  0  0  0  0  0
   10.4739    9.4813   20.2889 C   0  0  0  0  0  0  0  0  0  0  0  0
    7.5551    7.1270   23.1200 O   0  0  0  0  0  0  0  0  0  0  0  0
  1 11  4  0
  1 21  4  0
  2  4  1  0
  2  8  1  0
  2 11  1  0
  3 10  4  0
  3 14  4  0
  4  5  1  0
  4 18  2  0
  6 12  1  0
  6 17  4  0
  6 23  4  0
  7  9  1  0
  7 13  4  0
  7 19  4  0
  9 20  1  0
 10 19  4  0
 11 25  4  0
 13 14  4  0
 15 16  4  0
 15 17  4  0
 15 21  4  0
 16 24  1  0
 16 25  4  0
 20 24  1  0
 20 26  2  0
 21 23  4  0
 22 23  1  0
M  END
$$$$

 Created by Python create_sdf_string function

 26 28  0  0  0  0  0  0  0  0999 V2000
   12.4616    8.6700   19.4180 N   0  0  0  0  0  0  0  0  0  0  0  0
   11.8329   10.8148   18.6769 N   0  0  0  0  0  0  0  0  0  0  0  0
    6.1021    2.5564   21.0678 C   0  0  0  0  0  0  0  0  0  0  0  0
   10.9097   11.8051   18.4804 C   0  0  0  0  0  0  0  0  0  0  0  0
   11.2280   12.9135   17.5669 C   0  0  0  0  0  0  0  0  0  0  0  0
   12.3782    5.4231   20.7777 C   0  0  0  0  0  0  0  0  0  0  0  0
    7.7365    4.6508   21.6987 C   0  0  0  0  0  0  0  0  0  0  0  0
   13.0186   11.0102   18.0020 C   0  0  0  0  0  0  0  0  0  0  0  0
    8.6628    5.7088   21.8871 N   0  0  0  0  0  0  0  0  0  0  0  0
    5.6516    3.5258   21.9140 C   0  0  0  0  0  0  0  0  0  0  0  0
   11.5863    9.6815   19.4539 C   0  0  0  0  0  0  0  0  0  0  0  0
   12.9648    4.1543   20.9205 C   0  0  0  0  0  0  0  0  0  0  0  0
    8.2089    3.6265   20.8929 C   0  0  0  0  0  0  0  0  0  0  0  0
    7.3827    2.5724   20.5432 C   0  0  0  0  0  0  0  0  0  0  0  0
   11.1529    7.2750   20.8025 C   0  0  0  0  0  0  0  0  0  0  0  0
   10.2573    8.3215   20.9827 C   0  0  0  0  0  0  0  0  0  0  0  0
   11.1606    5.9378   21.2366 N   0  0  0  0  0  0  0  0  0  0  0  0
    9.8932   11.6736   19.0677 O   0  0  0  0  0  0  0  0  0  0  0  0
    6.4470    4.5850   22.2321 C   0  0  0  0  0  0  0  0  0  0  0  0
    8.4619    6.9895   22.2968 C   0  0  0  0  0  0  0  0  0  0  0  0
   12.2747    7.5102   20.0420 C   0  0  0  0  0  0  0  0  0  0  0  0
   14.2544    6.2142   19.4191 C   0  0  0  0  0  0  0  0  0  0  0  0
   13.0695    6.3705   20.0375 N   0  0  0  0  0  0  0  0  0  0  0  0
    9.1913    8.0876   21.8361 N   0  0  0  0  0  0  0  0  0  0  0  0
   10.4739    9.4813   20.2889 C   0  0  0  0  0  0  0  0  0  0  0  0
    7.5551    7.1270   23.1200 O   0  0  0  0  0  0  0  0  0  0  0  0
  1 11  4  0
  1 21  4  0
  2  4  1  0
  2  8  1  0
  2 11  1  0
  3 10  4  0
  3 14  4  0
  4  5  1  0
  4 18  2  0
  6 12  1  0
  6 17  4  0
  6 23  4  0
  7  9  1  0
  7 13  4  0
  7 19  4  0
  9 20  1  0
 10 19  4  0
 11 25  4  0
 13 14  4  0
 15 16  4  0
 15 17  4  0
 15 21  4  0
 16 24  1  0
 16 25  4  0
 20 24  1  0
 20 26  2  0
 21 23  4  0
 22 23  1  0
M  END
$$$$

 Created by Python create_sdf_string function

 26 28  0  0  0  0  0  0  0  0999 V2000
   12.4616    8.6700   19.4180 N   0  0  0  0  0  0  0  0  0  0  0  0
   11.8329   10.8148   18.6769 N   0  0  0  0  0  0  0  0  0  0  0  0
    6.1021    2.5564   21.0678 C   0  0  0  0  0  0  0  0  0  0  0  0
   10.9097   11.8051   18.4804 C   0  0  0  0  0  0  0  0  0  0  0  0
   11.2280   12.9135   17.5669 C   0  0  0  0  0  0  0  0  0  0  0  0
   12.3782    5.4231   20.7777 C   0  0  0  0  0  0  0  0  0  0  0  0
    7.7365    4.6508   21.6987 C   0  0  0  0  0  0  0  0  0  0  0  0
   13.0186   11.0102   18.0020 C   0  0  0  0  0  0  0  0  0  0  0  0
    8.6628    5.7088   21.8871 N   0  0  0  0  0  0  0  0  0  0  0  0
    5.6516    3.5258   21.9140 C   0  0  0  0  0  0  0  0  0  0  0  0
   11.5863    9.6815   19.4539 C   0  0  0  0  0  0  0  0  0  0  0  0
   12.9648    4.1543   20.9205 C   0  0  0  0  0  0  0  0  0  0  0  0
    8.2089    3.6265   20.8929 C   0  0  0  0  0  0  0  0  0  0  0  0
    7.3827    2.5724   20.5432 C   0  0  0  0  0  0  0  0  0  0  0  0
   11.1529    7.2750   20.8025 C   0  0  0  0  0  0  0  0  0  0  0  0
   10.2573    8.3215   20.9827 C   0  0  0  0  0  0  0  0  0  0  0  0
   11.1606    5.9378   21.2366 N   0  0  0  0  0  0  0  0  0  0  0  0
    9.8932   11.6736   19.0677 O   0  0  0  0  0  0  0  0  0  0  0  0
    6.4470    4.5850   22.2321 C   0  0  0  0  0  0  0  0  0  0  0  0
    8.4619    6.9895   22.2968 C   0  0  0  0  0  0  0  0  0  0  0  0
   12.2747    7.5102   20.0420 C   0  0  0  0  0  0  0  0  0  0  0  0
   14.2544    6.2142   19.4191 C   0  0  0  0  0  0  0  0  0  0  0  0
   13.0695    6.3705   20.0375 N   0  0  0  0  0  0  0  0  0  0  0  0
    9.1913    8.0876   21.8361 N   0  0  0  0  0  0  0  0  0  0  0  0
   10.4739    9.4813   20.2889 C   0  0  0  0  0  0  0  0  0  0  0  0
    7.5551    7.1270   23.1200 O   0  0  0  0  0  0  0  0  0  0  0  0
  1 11  4  0
  1 21  4  0
  2  4  1  0
  2  8  1  0
  2 11  1  0
  3 10  4  0
  3 14  4  0
  4  5  1  0
  4 18  2  0
  6 12  1  0
  6 17  4  0
  6 23  4  0
  7  9  1  0
  7 13  4  0
  7 19  4  0
  9 20  1  0
 10 19  4  0
 11 25  4  0
 13 14  4  0
 15 16  4  0
 15 17  4  0
 15 21  4  0
 16 24  1  0
 16 25  4  0
 20 24  1  0
 20 26  2  0
 21 23  4  0
 22 23  1  0
M  END
$$$$

 Created by Python create_sdf_string function

 26 28  0  0  0  0  0  0  0  0999 V2000
   12.4616    8.6700   19.4180 N   0  0  0  0  0  0  0  0  0  0  0  0
   11.8329   10.8148   18.6769 N   0  0  0  0  0  0  0  0  0  0  0  0
    6.1021    2.5564   21.0678 C   0  0  0  0  0  0  0  0  0  0  0  0
   10.9097   11.8051   18.4804 C   0  0  0  0  0  0  0  0  0  0  0  0
   11.2280   12.9135   17.5669 C   0  0  0  0  0  0  0  0  0  0  0  0
   12.3782    5.4231   20.7777 C   0  0  0  0  0  0  0  0  0  0  0  0
    7.7365    4.6508   21.6987 C   0  0  0  0  0  0  0  0  0  0  0  0
   13.0186   11.0102   18.0020 C   0  0  0  0  0  0  0  0  0  0  0  0
    8.6628    5.7088   21.8871 N   0  0  0  0  0  0  0  0  0  0  0  0
    5.6516    3.5258   21.9140 C   0  0  0  0  0  0  0  0  0  0  0  0
   11.5863    9.6815   19.4539 C   0  0  0  0  0  0  0  0  0  0  0  0
   12.9648    4.1543   20.9205 C   0  0  0  0  0  0  0  0  0  0  0  0
    8.2089    3.6265   20.8929 C   0  0  0  0  0  0  0  0  0  0  0  0
    7.3827    2.5724   20.5432 C   0  0  0  0  0  0  0  0  0  0  0  0
   11.1529    7.2750   20.8025 C   0  0  0  0  0  0  0  0  0  0  0  0
   10.2573    8.3215   20.9827 C   0  0  0  0  0  0  0  0  0  0  0  0
   11.1606    5.9378   21.2366 N   0  0  0  0  0  0  0  0  0  0  0  0
    9.8932   11.6736   19.0677 O   0  0  0  0  0  0  0  0  0  0  0  0
    6.4470    4.5850   22.2321 C   0  0  0  0  0  0  0  0  0  0  0  0
    8.4619    6.9895   22.2968 C   0  0  0  0  0  0  0  0  0  0  0  0
   12.2747    7.5102   20.0420 C   0  0  0  0  0  0  0  0  0  0  0  0
   14.2544    6.2142   19.4191 C   0  0  0  0  0  0  0  0  0  0  0  0
   13.0695    6.3705   20.0375 N   0  0  0  0  0  0  0  0  0  0  0  0
    9.1913    8.0876   21.8361 N   0  0  0  0  0  0  0  0  0  0  0  0
   10.4739    9.4813   20.2889 C   0  0  0  0  0  0  0  0  0  0  0  0
    7.5551    7.1270   23.1200 O   0  0  0  0  0  0  0  0  0  0  0  0
  1 11  4  0
  1 21  4  0
  2  4  1  0
  2  8  1  0
  2 11  1  0
  3 10  4  0
  3 14  4  0
  4  5  1  0
  4 18  2  0
  6 12  1  0
  6 17  4  0
  6 23  4  0
  7  9  1  0
  7 13  4  0
  7 19  4  0
  9 20  1  0
 10 19  4  0
 11 25  4  0
 13 14  4  0
 15 16  4  0
 15 17  4  0
 15 21  4  0
 16 24  1  0
 16 25  4  0
 20 24  1  0
 20 26  2  0
 21 23  4  0
 22 23  1  0
M  END
$$$$

 Created by Python create_sdf_string function

 26 28  0  0  0  0  0  0  0  0999 V2000
   12.4616    8.6700   19.4180 N   0  0  0  0  0  0  0  0  0  0  0  0
   11.8329   10.8148   18.6769 N   0  0  0  0  0  0  0  0  0  0  0  0
    6.1021    2.5564   21.0678 C   0  0  0  0  0  0  0  0  0  0  0  0
   10.9097   11.8051   18.4804 C   0  0  0  0  0  0  0  0  0  0  0  0
   11.2280   12.9135   17.5669 C   0  0  0  0  0  0  0  0  0  0  0  0
   12.3782    5.4231   20.7777 C   0  0  0  0  0  0  0  0  0  0  0  0
    7.7365    4.6508   21.6987 C   0  0  0  0  0  0  0  0  0  0  0  0
   13.0186   11.0102   18.0020 C   0  0  0  0  0  0  0  0  0  0  0  0
    8.6628    5.7088   21.8871 N   0  0  0  0  0  0  0  0  0  0  0  0
    5.6516    3.5258   21.9140 C   0  0  0  0  0  0  0  0  0  0  0  0
   11.5863    9.6815   19.4539 C   0  0  0  0  0  0  0  0  0  0  0  0
   12.9648    4.1543   20.9205 C   0  0  0  0  0  0  0  0  0  0  0  0
    8.2089    3.6265   20.8929 C   0  0  0  0  0  0  0  0  0  0  0  0
    7.3827    2.5724   20.5432 C   0  0  0  0  0  0  0  0  0  0  0  0
   11.1529    7.2750   20.8025 C   0  0  0  0  0  0  0  0  0  0  0  0
   10.2573    8.3215   20.9827 C   0  0  0  0  0  0  0  0  0  0  0  0
   11.1606    5.9378   21.2366 N   0  0  0  0  0  0  0  0  0  0  0  0
    9.8932   11.6736   19.0677 O   0  0  0  0  0  0  0  0  0  0  0  0
    6.4470    4.5850   22.2321 C   0  0  0  0  0  0  0  0  0  0  0  0
    8.4619    6.9895   22.2968 C   0  0  0  0  0  0  0  0  0  0  0  0
   12.2747    7.5102   20.0420 C   0  0  0  0  0  0  0  0  0  0  0  0
   14.2544    6.2142   19.4191 C   0  0  0  0  0  0  0  0  0  0  0  0
   13.0695    6.3705   20.0375 N   0  0  0  0  0  0  0  0  0  0  0  0
    9.1913    8.0876   21.8361 N   0  0  0  0  0  0  0  0  0  0  0  0
   10.4739    9.4813   20.2889 C   0  0  0  0  0  0  0  0  0  0  0  0
    7.5551    7.1270   23.1200 O   0  0  0  0  0  0  0  0  0  0  0  0
  1 11  4  0
  1 21  4  0
  2  4  1  0
  2  8  1  0
  2 11  1  0
  3 10  4  0
  3 14  4  0
  4  5  1  0
  4 18  2  0
  6 12  1  0
  6 17  4  0
  6 23  4  0
  7  9  1  0
  7 13  4  0
  7 19  4  0
  9 20  1  0
 10 19  4  0
 11 25  4  0
 13 14  4  0
 15 16  4  0
 15 17  4  0
 15 21  4  0
 16 24  1  0
 16 25  4  0
 20 24  1  0
 20 26  2  0
 21 23  4  0
 22 23  1  0
M  END
$$$$

 Created by Python create_sdf_string function

 26 28  0  0  0  0  0  0  0  0999 V2000
   12.4616    8.6700   19.4180 N   0  0  0  0  0  0  0  0  0  0  0  0
   11.8329   10.8148   18.6769 N   0  0  0  0  0  0  0  0  0  0  0  0
    6.1021    2.5564   21.0678 C   0  0  0  0  0  0  0  0  0  0  0  0
   10.9097   11.8051   18.4804 C   0  0  0  0  0  0  0  0  0  0  0  0
   11.2280   12.9135   17.5669 C   0  0  0  0  0  0  0  0  0  0  0  0
   12.3782    5.4231   20.7777 C   0  0  0  0  0  0  0  0  0  0  0  0
    7.7365    4.6508   21.6987 C   0  0  0  0  0  0  0  0  0  0  0  0
   13.0186   11.0102   18.0020 C   0  0  0  0  0  0  0  0  0  0  0  0
    8.6628    5.7088   21.8871 N   0  0  0  0  0  0  0  0  0  0  0  0
    5.6516    3.5258   21.9140 C   0  0  0  0  0  0  0  0  0  0  0  0
   11.5863    9.6815   19.4539 C   0  0  0  0  0  0  0  0  0  0  0  0
   12.9648    4.1543   20.9205 C   0  0  0  0  0  0  0  0  0  0  0  0
    8.2089    3.6265   20.8929 C   0  0  0  0  0  0  0  0  0  0  0  0
    7.3827    2.5724   20.5432 C   0  0  0  0  0  0  0  0  0  0  0  0
   11.1529    7.2750   20.8025 C   0  0  0  0  0  0  0  0  0  0  0  0
   10.2573    8.3215   20.9827 C   0  0  0  0  0  0  0  0  0  0  0  0
   11.1606    5.9378   21.2366 N   0  0  0  0  0  0  0  0  0  0  0  0
    9.8932   11.6736   19.0677 O   0  0  0  0  0  0  0  0  0  0  0  0
    6.4470    4.5850   22.2321 C   0  0  0  0  0  0  0  0  0  0  0  0
    8.4619    6.9895   22.2968 C   0  0  0  0  0  0  0  0  0  0  0  0
   12.2747    7.5102   20.0420 C   0  0  0  0  0  0  0  0  0  0  0  0
   14.2544    6.2142   19.4191 C   0  0  0  0  0  0  0  0  0  0  0  0
   13.0695    6.3705   20.0375 N   0  0  0  0  0  0  0  0  0  0  0  0
    9.1913    8.0876   21.8361 N   0  0  0  0  0  0  0  0  0  0  0  0
   10.4739    9.4813   20.2889 C   0  0  0  0  0  0  0  0  0  0  0  0
    7.5551    7.1270   23.1200 O   0  0  0  0  0  0  0  0  0  0  0  0
  1 11  4  0
  1 21  4  0
  2  4  1  0
  2  8  1  0
  2 11  1  0
  3 10  4  0
  3 14  4  0
  4  5  1  0
  4 18  2  0
  6 12  1  0
  6 17  4  0
  6 23  4  0
  7  9  1  0
  7 13  4  0
  7 19  4  0
  9 20  1  0
 10 19  4  0
 11 25  4  0
 13 14  4  0
 15 16  4  0
 15 17  4  0
 15 21  4  0
 16 24  1  0
 16 25  4  0
 20 24  1  0
 20 26  2  0
 21 23  4  0
 22 23  1  0
M  END
$$$$

 Created by Python create_sdf_string function

 26 28  0  0  0  0  0  0  0  0999 V2000
   12.4616    8.6700   19.4180 N   0  0  0  0  0  0  0  0  0  0  0  0
   11.8329   10.8148   18.6769 N   0  0  0  0  0  0  0  0  0  0  0  0
    6.1021    2.5564   21.0678 C   0  0  0  0  0  0  0  0  0  0  0  0
   10.9097   11.8051   18.4804 C   0  0  0  0  0  0  0  0  0  0  0  0
   11.2280   12.9135   17.5669 C   0  0  0  0  0  0  0  0  0  0  0  0
   12.3782    5.4231   20.7777 C   0  0  0  0  0  0  0  0  0  0  0  0
    7.7365    4.6508   21.6987 C   0  0  0  0  0  0  0  0  0  0  0  0
   13.0186   11.0102   18.0020 C   0  0  0  0  0  0  0  0  0  0  0  0
    8.6628    5.7088   21.8871 N   0  0  0  0  0  0  0  0  0  0  0  0
    5.6516    3.5258   21.9140 C   0  0  0  0  0  0  0  0  0  0  0  0
   11.5863    9.6815   19.4539 C   0  0  0  0  0  0  0  0  0  0  0  0
   12.9648    4.1543   20.9205 C   0  0  0  0  0  0  0  0  0  0  0  0
    8.2089    3.6265   20.8929 C   0  0  0  0  0  0  0  0  0  0  0  0
    7.3827    2.5724   20.5432 C   0  0  0  0  0  0  0  0  0  0  0  0
   11.1529    7.2750   20.8025 C   0  0  0  0  0  0  0  0  0  0  0  0
   10.2573    8.3215   20.9827 C   0  0  0  0  0  0  0  0  0  0  0  0
   11.1606    5.9378   21.2366 N   0  0  0  0  0  0  0  0  0  0  0  0
    9.8932   11.6736   19.0677 O   0  0  0  0  0  0  0  0  0  0  0  0
    6.4470    4.5850   22.2321 C   0  0  0  0  0  0  0  0  0  0  0  0
    8.4619    6.9895   22.2968 C   0  0  0  0  0  0  0  0  0  0  0  0
   12.2747    7.5102   20.0420 C   0  0  0  0  0  0  0  0  0  0  0  0
   14.2544    6.2142   19.4191 C   0  0  0  0  0  0  0  0  0  0  0  0
   13.0695    6.3705   20.0375 N   0  0  0  0  0  0  0  0  0  0  0  0
    9.1913    8.0876   21.8361 N   0  0  0  0  0  0  0  0  0  0  0  0
   10.4739    9.4813   20.2889 C   0  0  0  0  0  0  0  0  0  0  0  0
    7.5551    7.1270   23.1200 O   0  0  0  0  0  0  0  0  0  0  0  0
  1 11  4  0
  1 21  4  0
  2  4  1  0
  2  8  1  0
  2 11  1  0
  3 10  4  0
  3 14  4  0
  4  5  1  0
  4 18  2  0
  6 12  1  0
  6 17  4  0
  6 23  4  0
  7  9  1  0
  7 13  4  0
  7 19  4  0
  9 20  1  0
 10 19  4  0
 11 25  4  0
 13 14  4  0
 15 16  4  0
 15 17  4  0
 15 21  4  0
 16 24  1  0
 16 25  4  0
 20 24  1  0
 20 26  2  0
 21 23  4  0
 22 23  1  0
M  END
$$$$

 Created by Python create_sdf_string function

 26 28  0  0  0  0  0  0  0  0999 V2000
   12.4616    8.6700   19.4180 N   0  0  0  0  0  0  0  0  0  0  0  0
   11.8329   10.8148   18.6769 N   0  0  0  0  0  0  0  0  0  0  0  0
    6.1021    2.5564   21.0678 C   0  0  0  0  0  0  0  0  0  0  0  0
   10.9097   11.8051   18.4804 C   0  0  0  0  0  0  0  0  0  0  0  0
   11.2280   12.9135   17.5669 C   0  0  0  0  0  0  0  0  0  0  0  0
   12.3782    5.4231   20.7777 C   0  0  0  0  0  0  0  0  0  0  0  0
    7.7365    4.6508   21.6987 C   0  0  0  0  0  0  0  0  0  0  0  0
   13.0186   11.0102   18.0020 C   0  0  0  0  0  0  0  0  0  0  0  0
    8.6628    5.7088   21.8871 N   0  0  0  0  0  0  0  0  0  0  0  0
    5.6516    3.5258   21.9140 C   0  0  0  0  0  0  0  0  0  0  0  0
   11.5863    9.6815   19.4539 C   0  0  0  0  0  0  0  0  0  0  0  0
   12.9648    4.1543   20.9205 C   0  0  0  0  0  0  0  0  0  0  0  0
    8.2089    3.6265   20.8929 C   0  0  0  0  0  0  0  0  0  0  0  0
    7.3827    2.5724   20.5432 C   0  0  0  0  0  0  0  0  0  0  0  0
   11.1529    7.2750   20.8025 C   0  0  0  0  0  0  0  0  0  0  0  0
   10.2573    8.3215   20.9827 C   0  0  0  0  0  0  0  0  0  0  0  0
   11.1606    5.9378   21.2366 N   0  0  0  0  0  0  0  0  0  0  0  0
    9.8932   11.6736   19.0677 O   0  0  0  0  0  0  0  0  0  0  0  0
    6.4470    4.5850   22.2321 C   0  0  0  0  0  0  0  0  0  0  0  0
    8.4619    6.9895   22.2968 C   0  0  0  0  0  0  0  0  0  0  0  0
   12.2747    7.5102   20.0420 C   0  0  0  0  0  0  0  0  0  0  0  0
   14.2544    6.2142   19.4191 C   0  0  0  0  0  0  0  0  0  0  0  0
   13.0695    6.3705   20.0375 N   0  0  0  0  0  0  0  0  0  0  0  0
    9.1913    8.0876   21.8361 N   0  0  0  0  0  0  0  0  0  0  0  0
   10.4739    9.4813   20.2889 C   0  0  0  0  0  0  0  0  0  0  0  0
    7.5551    7.1270   23.1200 O   0  0  0  0  0  0  0  0  0  0  0  0
  1 11  4  0
  1 21  4  0
  2  4  1  0
  2  8  1  0
  2 11  1  0
  3 10  4  0
  3 14  4  0
  4  5  1  0
  4 18  2  0
  6 12  1  0
  6 17  4  0
  6 23  4  0
  7  9  1  0
  7 13  4  0
  7 19  4  0
  9 20  1  0
 10 19  4  0
 11 25  4  0
 13 14  4  0
 15 16  4  0
 15 17  4  0
 15 21  4  0
 16 24  1  0
 16 25  4  0
 20 24  1  0
 20 26  2  0
 21 23  4  0
 22 23  1  0
M  END
$$$$

 Created by Python create_sdf_string function

 26 28  0  0  0  0  0  0  0  0999 V2000
   12.4616    8.6700   19.4180 N   0  0  0  0  0  0  0  0  0  0  0  0
   11.8329   10.8148   18.6769 N   0  0  0  0  0  0  0  0  0  0  0  0
    6.1021    2.5564   21.0678 C   0  0  0  0  0  0  0  0  0  0  0  0
   10.9097   11.8051   18.4804 C   0  0  0  0  0  0  0  0  0  0  0  0
   11.2280   12.9135   17.5669 C   0  0  0  0  0  0  0  0  0  0  0  0
   12.3782    5.4231   20.7777 C   0  0  0  0  0  0  0  0  0  0  0  0
    7.7365    4.6508   21.6987 C   0  0  0  0  0  0  0  0  0  0  0  0
   13.0186   11.0102   18.0020 C   0  0  0  0  0  0  0  0  0  0  0  0
    8.6628    5.7088   21.8871 N   0  0  0  0  0  0  0  0  0  0  0  0
    5.6516    3.5258   21.9140 C   0  0  0  0  0  0  0  0  0  0  0  0
   11.5863    9.6815   19.4539 C   0  0  0  0  0  0  0  0  0  0  0  0
   12.9648    4.1543   20.9205 C   0  0  0  0  0  0  0  0  0  0  0  0
    8.2089    3.6265   20.8929 C   0  0  0  0  0  0  0  0  0  0  0  0
    7.3827    2.5724   20.5432 C   0  0  0  0  0  0  0  0  0  0  0  0
   11.1529    7.2750   20.8025 C   0  0  0  0  0  0  0  0  0  0  0  0
   10.2573    8.3215   20.9827 C   0  0  0  0  0  0  0  0  0  0  0  0
   11.1606    5.9378   21.2366 N   0  0  0  0  0  0  0  0  0  0  0  0
    9.8932   11.6736   19.0677 O   0  0  0  0  0  0  0  0  0  0  0  0
    6.4470    4.5850   22.2321 C   0  0  0  0  0  0  0  0  0  0  0  0
    8.4619    6.9895   22.2968 C   0  0  0  0  0  0  0  0  0  0  0  0
   12.2747    7.5102   20.0420 C   0  0  0  0  0  0  0  0  0  0  0  0
   14.2544    6.2142   19.4191 C   0  0  0  0  0  0  0  0  0  0  0  0
   13.0695    6.3705   20.0375 N   0  0  0  0  0  0  0  0  0  0  0  0
    9.1913    8.0876   21.8361 N   0  0  0  0  0  0  0  0  0  0  0  0
   10.4739    9.4813   20.2889 C   0  0  0  0  0  0  0  0  0  0  0  0
    7.5551    7.1270   23.1200 O   0  0  0  0  0  0  0  0  0  0  0  0
  1 11  4  0
  1 21  4  0
  2  4  1  0
  2  8  1  0
  2 11  1  0
  3 10  4  0
  3 14  4  0
  4  5  1  0
  4 18  2  0
  6 12  1  0
  6 17  4  0
  6 23  4  0
  7  9  1  0
  7 13  4  0
  7 19  4  0
  9 20  1  0
 10 19  4  0
 11 25  4  0
 13 14  4  0
 15 16  4  0
 15 17  4  0
 15 21  4  0
 16 24  1  0
 16 25  4  0
 20 24  1  0
 20 26  2  0
 21 23  4  0
 22 23  1  0
M  END
$$$$

 Created by Python create_sdf_string function

 26 28  0  0  0  0  0  0  0  0999 V2000
   12.4616    8.6700   19.4180 N   0  0  0  0  0  0  0  0  0  0  0  0
   11.8329   10.8148   18.6769 N   0  0  0  0  0  0  0  0  0  0  0  0
    6.1021    2.5564   21.0678 C   0  0  0  0  0  0  0  0  0  0  0  0
   10.9097   11.8051   18.4804 C   0  0  0  0  0  0  0  0  0  0  0  0
   11.2280   12.9135   17.5669 C   0  0  0  0  0  0  0  0  0  0  0  0
   12.3782    5.4231   20.7777 C   0  0  0  0  0  0  0  0  0  0  0  0
    7.7365    4.6508   21.6987 C   0  0  0  0  0  0  0  0  0  0  0  0
   13.0186   11.0102   18.0020 C   0  0  0  0  0  0  0  0  0  0  0  0
    8.6628    5.7088   21.8871 N   0  0  0  0  0  0  0  0  0  0  0  0
    5.6516    3.5258   21.9140 C   0  0  0  0  0  0  0  0  0  0  0  0
   11.5863    9.6815   19.4539 C   0  0  0  0  0  0  0  0  0  0  0  0
   12.9648    4.1543   20.9205 C   0  0  0  0  0  0  0  0  0  0  0  0
    8.2089    3.6265   20.8929 C   0  0  0  0  0  0  0  0  0  0  0  0
    7.3827    2.5724   20.5432 C   0  0  0  0  0  0  0  0  0  0  0  0
   11.1529    7.2750   20.8025 C   0  0  0  0  0  0  0  0  0  0  0  0
   10.2573    8.3215   20.9827 C   0  0  0  0  0  0  0  0  0  0  0  0
   11.1606    5.9378   21.2366 N   0  0  0  0  0  0  0  0  0  0  0  0
    9.8932   11.6736   19.0677 O   0  0  0  0  0  0  0  0  0  0  0  0
    6.4470    4.5850   22.2321 C   0  0  0  0  0  0  0  0  0  0  0  0
    8.4619    6.9895   22.2968 C   0  0  0  0  0  0  0  0  0  0  0  0
   12.2747    7.5102   20.0420 C   0  0  0  0  0  0  0  0  0  0  0  0
   14.2544    6.2142   19.4191 C   0  0  0  0  0  0  0  0  0  0  0  0
   13.0695    6.3705   20.0375 N   0  0  0  0  0  0  0  0  0  0  0  0
    9.1913    8.0876   21.8361 N   0  0  0  0  0  0  0  0  0  0  0  0
   10.4739    9.4813   20.2889 C   0  0  0  0  0  0  0  0  0  0  0  0
    7.5551    7.1270   23.1200 O   0  0  0  0  0  0  0  0  0  0  0  0
  1 11  4  0
  1 21  4  0
  2  4  1  0
  2  8  1  0
  2 11  1  0
  3 10  4  0
  3 14  4  0
  4  5  1  0
  4 18  2  0
  6 12  1  0
  6 17  4  0
  6 23  4  0
  7  9  1  0
  7 13  4  0
  7 19  4  0
  9 20  1  0
 10 19  4  0
 11 25  4  0
 13 14  4  0
 15 16  4  0
 15 17  4  0
 15 21  4  0
 16 24  1  0
 16 25  4  0
 20 24  1  0
 20 26  2  0
 21 23  4  0
 22 23  1  0
M  END
$$$$

 Created by Python create_sdf_string function

 26 28  0  0  0  0  0  0  0  0999 V2000
   12.4616    8.6700   19.4180 N   0  0  0  0  0  0  0  0  0  0  0  0
   11.8329   10.8148   18.6769 N   0  0  0  0  0  0  0  0  0  0  0  0
    6.1021    2.5564   21.0678 C   0  0  0  0  0  0  0  0  0  0  0  0
   10.9097   11.8051   18.4804 C   0  0  0  0  0  0  0  0  0  0  0  0
   11.2280   12.9135   17.5669 C   0  0  0  0  0  0  0  0  0  0  0  0
   12.3782    5.4231   20.7777 C   0  0  0  0  0  0  0  0  0  0  0  0
    7.7365    4.6508   21.6987 C   0  0  0  0  0  0  0  0  0  0  0  0
   13.0186   11.0102   18.0020 C   0  0  0  0  0  0  0  0  0  0  0  0
    8.6628    5.7088   21.8871 N   0  0  0  0  0  0  0  0  0  0  0  0
    5.6516    3.5258   21.9140 C   0  0  0  0  0  0  0  0  0  0  0  0
   11.5863    9.6815   19.4539 C   0  0  0  0  0  0  0  0  0  0  0  0
   12.9648    4.1543   20.9205 C   0  0  0  0  0  0  0  0  0  0  0  0
    8.2089    3.6265   20.8929 C   0  0  0  0  0  0  0  0  0  0  0  0
    7.3827    2.5724   20.5432 C   0  0  0  0  0  0  0  0  0  0  0  0
   11.1529    7.2750   20.8025 C   0  0  0  0  0  0  0  0  0  0  0  0
   10.2573    8.3215   20.9827 C   0  0  0  0  0  0  0  0  0  0  0  0
   11.1606    5.9378   21.2366 N   0  0  0  0  0  0  0  0  0  0  0  0
    9.8932   11.6736   19.0677 O   0  0  0  0  0  0  0  0  0  0  0  0
    6.4470    4.5850   22.2321 C   0  0  0  0  0  0  0  0  0  0  0  0
    8.4619    6.9895   22.2968 C   0  0  0  0  0  0  0  0  0  0  0  0
   12.2747    7.5102   20.0420 C   0  0  0  0  0  0  0  0  0  0  0  0
   14.2544    6.2142   19.4191 C   0  0  0  0  0  0  0  0  0  0  0  0
   13.0695    6.3705   20.0375 N   0  0  0  0  0  0  0  0  0  0  0  0
    9.1913    8.0876   21.8361 N   0  0  0  0  0  0  0  0  0  0  0  0
   10.4739    9.4813   20.2889 C   0  0  0  0  0  0  0  0  0  0  0  0
    7.5551    7.1270   23.1200 O   0  0  0  0  0  0  0  0  0  0  0  0
  1 11  4  0
  1 21  4  0
  2  4  1  0
  2  8  1  0
  2 11  1  0
  3 10  4  0
  3 14  4  0
  4  5  1  0
  4 18  2  0
  6 12  1  0
  6 17  4  0
  6 23  4  0
  7  9  1  0
  7 13  4  0
  7 19  4  0
  9 20  1  0
 10 19  4  0
 11 25  4  0
 13 14  4  0
 15 16  4  0
 15 17  4  0
 15 21  4  0
 16 24  1  0
 16 25  4  0
 20 24  1  0
 20 26  2  0
 21 23  4  0
 22 23  1  0
M  END
$$$$

 Created by Python create_sdf_string function

 26 28  0  0  0  0  0  0  0  0999 V2000
   12.4616    8.6700   19.4180 N   0  0  0  0  0  0  0  0  0  0  0  0
   11.8329   10.8148   18.6769 N   0  0  0  0  0  0  0  0  0  0  0  0
    6.1021    2.5564   21.0678 C   0  0  0  0  0  0  0  0  0  0  0  0
   10.9097   11.8051   18.4804 C   0  0  0  0  0  0  0  0  0  0  0  0
   11.2280   12.9135   17.5669 C   0  0  0  0  0  0  0  0  0  0  0  0
   12.3782    5.4231   20.7777 C   0  0  0  0  0  0  0  0  0  0  0  0
    7.7365    4.6508   21.6987 C   0  0  0  0  0  0  0  0  0  0  0  0
   13.0186   11.0102   18.0020 C   0  0  0  0  0  0  0  0  0  0  0  0
    8.6628    5.7088   21.8871 N   0  0  0  0  0  0  0  0  0  0  0  0
    5.6516    3.5258   21.9140 C   0  0  0  0  0  0  0  0  0  0  0  0
   11.5863    9.6815   19.4539 C   0  0  0  0  0  0  0  0  0  0  0  0
   12.9648    4.1543   20.9205 C   0  0  0  0  0  0  0  0  0  0  0  0
    8.2089    3.6265   20.8929 C   0  0  0  0  0  0  0  0  0  0  0  0
    7.3827    2.5724   20.5432 C   0  0  0  0  0  0  0  0  0  0  0  0
   11.1529    7.2750   20.8025 C   0  0  0  0  0  0  0  0  0  0  0  0
   10.2573    8.3215   20.9827 C   0  0  0  0  0  0  0  0  0  0  0  0
   11.1606    5.9378   21.2366 N   0  0  0  0  0  0  0  0  0  0  0  0
    9.8932   11.6736   19.0677 O   0  0  0  0  0  0  0  0  0  0  0  0
    6.4470    4.5850   22.2321 C   0  0  0  0  0  0  0  0  0  0  0  0
    8.4619    6.9895   22.2968 C   0  0  0  0  0  0  0  0  0  0  0  0
   12.2747    7.5102   20.0420 C   0  0  0  0  0  0  0  0  0  0  0  0
   14.2544    6.2142   19.4191 C   0  0  0  0  0  0  0  0  0  0  0  0
   13.0695    6.3705   20.0375 N   0  0  0  0  0  0  0  0  0  0  0  0
    9.1913    8.0876   21.8361 N   0  0  0  0  0  0  0  0  0  0  0  0
   10.4739    9.4813   20.2889 C   0  0  0  0  0  0  0  0  0  0  0  0
    7.5551    7.1270   23.1200 O   0  0  0  0  0  0  0  0  0  0  0  0
  1 11  4  0
  1 21  4  0
  2  4  1  0
  2  8  1  0
  2 11  1  0
  3 10  4  0
  3 14  4  0
  4  5  1  0
  4 18  2  0
  6 12  1  0
  6 17  4  0
  6 23  4  0
  7  9  1  0
  7 13  4  0
  7 19  4  0
  9 20  1  0
 10 19  4  0
 11 25  4  0
 13 14  4  0
 15 16  4  0
 15 17  4  0
 15 21  4  0
 16 24  1  0
 16 25  4  0
 20 24  1  0
 20 26  2  0
 21 23  4  0
 22 23  1  0
M  END
$$$$

 Created by Python create_sdf_string function

 26 28  0  0  0  0  0  0  0  0999 V2000
   12.4616    8.6700   19.4180 N   0  0  0  0  0  0  0  0  0  0  0  0
   11.8329   10.8148   18.6769 N   0  0  0  0  0  0  0  0  0  0  0  0
    6.1021    2.5564   21.0678 C   0  0  0  0  0  0  0  0  0  0  0  0
   10.9097   11.8051   18.4804 C   0  0  0  0  0  0  0  0  0  0  0  0
   11.2280   12.9135   17.5669 C   0  0  0  0  0  0  0  0  0  0  0  0
   12.3782    5.4231   20.7777 C   0  0  0  0  0  0  0  0  0  0  0  0
    7.7365    4.6508   21.6987 C   0  0  0  0  0  0  0  0  0  0  0  0
   13.0186   11.0102   18.0020 C   0  0  0  0  0  0  0  0  0  0  0  0
    8.6628    5.7088   21.8871 N   0  0  0  0  0  0  0  0  0  0  0  0
    5.6516    3.5258   21.9140 C   0  0  0  0  0  0  0  0  0  0  0  0
   11.5863    9.6815   19.4539 C   0  0  0  0  0  0  0  0  0  0  0  0
   12.9648    4.1543   20.9205 C   0  0  0  0  0  0  0  0  0  0  0  0
    8.2089    3.6265   20.8929 C   0  0  0  0  0  0  0  0  0  0  0  0
    7.3827    2.5724   20.5432 C   0  0  0  0  0  0  0  0  0  0  0  0
   11.1529    7.2750   20.8025 C   0  0  0  0  0  0  0  0  0  0  0  0
   10.2573    8.3215   20.9827 C   0  0  0  0  0  0  0  0  0  0  0  0
   11.1606    5.9378   21.2366 N   0  0  0  0  0  0  0  0  0  0  0  0
    9.8932   11.6736   19.0677 O   0  0  0  0  0  0  0  0  0  0  0  0
    6.4470    4.5850   22.2321 C   0  0  0  0  0  0  0  0  0  0  0  0
    8.4619    6.9895   22.2968 C   0  0  0  0  0  0  0  0  0  0  0  0
   12.2747    7.5102   20.0420 C   0  0  0  0  0  0  0  0  0  0  0  0
   14.2544    6.2142   19.4191 C   0  0  0  0  0  0  0  0  0  0  0  0
   13.0695    6.3705   20.0375 N   0  0  0  0  0  0  0  0  0  0  0  0
    9.1913    8.0876   21.8361 N   0  0  0  0  0  0  0  0  0  0  0  0
   10.4739    9.4813   20.2889 C   0  0  0  0  0  0  0  0  0  0  0  0
    7.5551    7.1270   23.1200 O   0  0  0  0  0  0  0  0  0  0  0  0
  1 11  4  0
  1 21  4  0
  2  4  1  0
  2  8  1  0
  2 11  1  0
  3 10  4  0
  3 14  4  0
  4  5  1  0
  4 18  2  0
  6 12  1  0
  6 17  4  0
  6 23  4  0
  7  9  1  0
  7 13  4  0
  7 19  4  0
  9 20  1  0
 10 19  4  0
 11 25  4  0
 13 14  4  0
 15 16  4  0
 15 17  4  0
 15 21  4  0
 16 24  1  0
 16 25  4  0
 20 24  1  0
 20 26  2  0
 21 23  4  0
 22 23  1  0
M  END
$$$$

 Created by Python create_sdf_string function

 26 28  0  0  0  0  0  0  0  0999 V2000
   12.4616    8.6700   19.4180 N   0  0  0  0  0  0  0  0  0  0  0  0
   11.8329   10.8148   18.6769 N   0  0  0  0  0  0  0  0  0  0  0  0
    6.1021    2.5564   21.0678 C   0  0  0  0  0  0  0  0  0  0  0  0
   10.9097   11.8051   18.4804 C   0  0  0  0  0  0  0  0  0  0  0  0
   11.2280   12.9135   17.5669 C   0  0  0  0  0  0  0  0  0  0  0  0
   12.3782    5.4231   20.7777 C   0  0  0  0  0  0  0  0  0  0  0  0
    7.7365    4.6508   21.6987 C   0  0  0  0  0  0  0  0  0  0  0  0
   13.0186   11.0102   18.0020 C   0  0  0  0  0  0  0  0  0  0  0  0
    8.6628    5.7088   21.8871 N   0  0  0  0  0  0  0  0  0  0  0  0
    5.6516    3.5258   21.9140 C   0  0  0  0  0  0  0  0  0  0  0  0
   11.5863    9.6815   19.4539 C   0  0  0  0  0  0  0  0  0  0  0  0
   12.9648    4.1543   20.9205 C   0  0  0  0  0  0  0  0  0  0  0  0
    8.2089    3.6265   20.8929 C   0  0  0  0  0  0  0  0  0  0  0  0
    7.3827    2.5724   20.5432 C   0  0  0  0  0  0  0  0  0  0  0  0
   11.1529    7.2750   20.8025 C   0  0  0  0  0  0  0  0  0  0  0  0
   10.2573    8.3215   20.9827 C   0  0  0  0  0  0  0  0  0  0  0  0
   11.1606    5.9378   21.2366 N   0  0  0  0  0  0  0  0  0  0  0  0
    9.8932   11.6736   19.0677 O   0  0  0  0  0  0  0  0  0  0  0  0
    6.4470    4.5850   22.2321 C   0  0  0  0  0  0  0  0  0  0  0  0
    8.4619    6.9895   22.2968 C   0  0  0  0  0  0  0  0  0  0  0  0
   12.2747    7.5102   20.0420 C   0  0  0  0  0  0  0  0  0  0  0  0
   14.2544    6.2142   19.4191 C   0  0  0  0  0  0  0  0  0  0  0  0
   13.0695    6.3705   20.0375 N   0  0  0  0  0  0  0  0  0  0  0  0
    9.1913    8.0876   21.8361 N   0  0  0  0  0  0  0  0  0  0  0  0
   10.4739    9.4813   20.2889 C   0  0  0  0  0  0  0  0  0  0  0  0
    7.5551    7.1270   23.1200 O   0  0  0  0  0  0  0  0  0  0  0  0
  1 11  4  0
  1 21  4  0
  2  4  1  0
  2  8  1  0
  2 11  1  0
  3 10  4  0
  3 14  4  0
  4  5  1  0
  4 18  2  0
  6 12  1  0
  6 17  4  0
  6 23  4  0
  7  9  1  0
  7 13  4  0
  7 19  4  0
  9 20  1  0
 10 19  4  0
 11 25  4  0
 13 14  4  0
 15 16  4  0
 15 17  4  0
 15 21  4  0
 16 24  1  0
 16 25  4  0
 20 24  1  0
 20 26  2  0
 21 23  4  0
 22 23  1  0
M  END
$$$$

 Created by Python create_sdf_string function

 26 28  0  0  0  0  0  0  0  0999 V2000
   12.4616    8.6700   19.4180 N   0  0  0  0  0  0  0  0  0  0  0  0
   11.8329   10.8148   18.6769 N   0  0  0  0  0  0  0  0  0  0  0  0
    6.1021    2.5564   21.0678 C   0  0  0  0  0  0  0  0  0  0  0  0
   10.9097   11.8051   18.4804 C   0  0  0  0  0  0  0  0  0  0  0  0
   11.2280   12.9135   17.5669 C   0  0  0  0  0  0  0  0  0  0  0  0
   12.3782    5.4231   20.7777 C   0  0  0  0  0  0  0  0  0  0  0  0
    7.7365    4.6508   21.6987 C   0  0  0  0  0  0  0  0  0  0  0  0
   13.0186   11.0102   18.0020 C   0  0  0  0  0  0  0  0  0  0  0  0
    8.6628    5.7088   21.8871 N   0  0  0  0  0  0  0  0  0  0  0  0
    5.6516    3.5258   21.9140 C   0  0  0  0  0  0  0  0  0  0  0  0
   11.5863    9.6815   19.4539 C   0  0  0  0  0  0  0  0  0  0  0  0
   12.9648    4.1543   20.9205 C   0  0  0  0  0  0  0  0  0  0  0  0
    8.2089    3.6265   20.8929 C   0  0  0  0  0  0  0  0  0  0  0  0
    7.3827    2.5724   20.5432 C   0  0  0  0  0  0  0  0  0  0  0  0
   11.1529    7.2750   20.8025 C   0  0  0  0  0  0  0  0  0  0  0  0
   10.2573    8.3215   20.9827 C   0  0  0  0  0  0  0  0  0  0  0  0
   11.1606    5.9378   21.2366 N   0  0  0  0  0  0  0  0  0  0  0  0
    9.8932   11.6736   19.0677 O   0  0  0  0  0  0  0  0  0  0  0  0
    6.4470    4.5850   22.2321 C   0  0  0  0  0  0  0  0  0  0  0  0
    8.4619    6.9895   22.2968 C   0  0  0  0  0  0  0  0  0  0  0  0
   12.2747    7.5102   20.0420 C   0  0  0  0  0  0  0  0  0  0  0  0
   14.2544    6.2142   19.4191 C   0  0  0  0  0  0  0  0  0  0  0  0
   13.0695    6.3705   20.0375 N   0  0  0  0  0  0  0  0  0  0  0  0
    9.1913    8.0876   21.8361 N   0  0  0  0  0  0  0  0  0  0  0  0
   10.4739    9.4813   20.2889 C   0  0  0  0  0  0  0  0  0  0  0  0
    7.5551    7.1270   23.1200 O   0  0  0  0  0  0  0  0  0  0  0  0
  1 11  4  0
  1 21  4  0
  2  4  1  0
  2  8  1  0
  2 11  1  0
  3 10  4  0
  3 14  4  0
  4  5  1  0
  4 18  2  0
  6 12  1  0
  6 17  4  0
  6 23  4  0
  7  9  1  0
  7 13  4  0
  7 19  4  0
  9 20  1  0
 10 19  4  0
 11 25  4  0
 13 14  4  0
 15 16  4  0
 15 17  4  0
 15 21  4  0
 16 24  1  0
 16 25  4  0
 20 24  1  0
 20 26  2  0
 21 23  4  0
 22 23  1  0
M  END
$$$$

 Created by Python create_sdf_string function

 26 28  0  0  0  0  0  0  0  0999 V2000
   12.4616    8.6700   19.4180 N   0  0  0  0  0  0  0  0  0  0  0  0
   11.8329   10.8148   18.6769 N   0  0  0  0  0  0  0  0  0  0  0  0
    6.1021    2.5564   21.0678 C   0  0  0  0  0  0  0  0  0  0  0  0
   10.9097   11.8051   18.4804 C   0  0  0  0  0  0  0  0  0  0  0  0
   11.2280   12.9135   17.5669 C   0  0  0  0  0  0  0  0  0  0  0  0
   12.3782    5.4231   20.7777 C   0  0  0  0  0  0  0  0  0  0  0  0
    7.7365    4.6508   21.6987 C   0  0  0  0  0  0  0  0  0  0  0  0
   13.0186   11.0102   18.0020 C   0  0  0  0  0  0  0  0  0  0  0  0
    8.6628    5.7088   21.8871 N   0  0  0  0  0  0  0  0  0  0  0  0
    5.6516    3.5258   21.9140 C   0  0  0  0  0  0  0  0  0  0  0  0
   11.5863    9.6815   19.4539 C   0  0  0  0  0  0  0  0  0  0  0  0
   12.9648    4.1543   20.9205 C   0  0  0  0  0  0  0  0  0  0  0  0
    8.2089    3.6265   20.8929 C   0  0  0  0  0  0  0  0  0  0  0  0
    7.3827    2.5724   20.5432 C   0  0  0  0  0  0  0  0  0  0  0  0
   11.1529    7.2750   20.8025 C   0  0  0  0  0  0  0  0  0  0  0  0
   10.2573    8.3215   20.9827 C   0  0  0  0  0  0  0  0  0  0  0  0
   11.1606    5.9378   21.2366 N   0  0  0  0  0  0  0  0  0  0  0  0
    9.8932   11.6736   19.0677 O   0  0  0  0  0  0  0  0  0  0  0  0
    6.4470    4.5850   22.2321 C   0  0  0  0  0  0  0  0  0  0  0  0
    8.4619    6.9895   22.2968 C   0  0  0  0  0  0  0  0  0  0  0  0
   12.2747    7.5102   20.0420 C   0  0  0  0  0  0  0  0  0  0  0  0
   14.2544    6.2142   19.4191 C   0  0  0  0  0  0  0  0  0  0  0  0
   13.0695    6.3705   20.0375 N   0  0  0  0  0  0  0  0  0  0  0  0
    9.1913    8.0876   21.8361 N   0  0  0  0  0  0  0  0  0  0  0  0
   10.4739    9.4813   20.2889 C   0  0  0  0  0  0  0  0  0  0  0  0
    7.5551    7.1270   23.1200 O   0  0  0  0  0  0  0  0  0  0  0  0
  1 11  4  0
  1 21  4  0
  2  4  1  0
  2  8  1  0
  2 11  1  0
  3 10  4  0
  3 14  4  0
  4  5  1  0
  4 18  2  0
  6 12  1  0
  6 17  4  0
  6 23  4  0
  7  9  1  0
  7 13  4  0
  7 19  4  0
  9 20  1  0
 10 19  4  0
 11 25  4  0
 13 14  4  0
 15 16  4  0
 15 17  4  0
 15 21  4  0
 16 24  1  0
 16 25  4  0
 20 24  1  0
 20 26  2  0
 21 23  4  0
 22 23  1  0
M  END
$$$$

 Created by Python create_sdf_string function

 26 28  0  0  0  0  0  0  0  0999 V2000
   12.4616    8.6700   19.4180 N   0  0  0  0  0  0  0  0  0  0  0  0
   11.8329   10.8148   18.6769 N   0  0  0  0  0  0  0  0  0  0  0  0
    6.1021    2.5564   21.0678 C   0  0  0  0  0  0  0  0  0  0  0  0
   10.9097   11.8051   18.4804 C   0  0  0  0  0  0  0  0  0  0  0  0
   11.2280   12.9135   17.5669 C   0  0  0  0  0  0  0  0  0  0  0  0
   12.3782    5.4231   20.7777 C   0  0  0  0  0  0  0  0  0  0  0  0
    7.7365    4.6508   21.6987 C   0  0  0  0  0  0  0  0  0  0  0  0
   13.0186   11.0102   18.0020 C   0  0  0  0  0  0  0  0  0  0  0  0
    8.6628    5.7088   21.8871 N   0  0  0  0  0  0  0  0  0  0  0  0
    5.6516    3.5258   21.9140 C   0  0  0  0  0  0  0  0  0  0  0  0
   11.5863    9.6815   19.4539 C   0  0  0  0  0  0  0  0  0  0  0  0
   12.9648    4.1543   20.9205 C   0  0  0  0  0  0  0  0  0  0  0  0
    8.2089    3.6265   20.8929 C   0  0  0  0  0  0  0  0  0  0  0  0
    7.3827    2.5724   20.5432 C   0  0  0  0  0  0  0  0  0  0  0  0
   11.1529    7.2750   20.8025 C   0  0  0  0  0  0  0  0  0  0  0  0
   10.2573    8.3215   20.9827 C   0  0  0  0  0  0  0  0  0  0  0  0
   11.1606    5.9378   21.2366 N   0  0  0  0  0  0  0  0  0  0  0  0
    9.8932   11.6736   19.0677 O   0  0  0  0  0  0  0  0  0  0  0  0
    6.4470    4.5850   22.2321 C   0  0  0  0  0  0  0  0  0  0  0  0
    8.4619    6.9895   22.2968 C   0  0  0  0  0  0  0  0  0  0  0  0
   12.2747    7.5102   20.0420 C   0  0  0  0  0  0  0  0  0  0  0  0
   14.2544    6.2142   19.4191 C   0  0  0  0  0  0  0  0  0  0  0  0
   13.0695    6.3705   20.0375 N   0  0  0  0  0  0  0  0  0  0  0  0
    9.1913    8.0876   21.8361 N   0  0  0  0  0  0  0  0  0  0  0  0
   10.4739    9.4813   20.2889 C   0  0  0  0  0  0  0  0  0  0  0  0
    7.5551    7.1270   23.1200 O   0  0  0  0  0  0  0  0  0  0  0  0
  1 11  4  0
  1 21  4  0
  2  4  1  0
  2  8  1  0
  2 11  1  0
  3 10  4  0
  3 14  4  0
  4  5  1  0
  4 18  2  0
  6 12  1  0
  6 17  4  0
  6 23  4  0
  7  9  1  0
  7 13  4  0
  7 19  4  0
  9 20  1  0
 10 19  4  0
 11 25  4  0
 13 14  4  0
 15 16  4  0
 15 17  4  0
 15 21  4  0
 16 24  1  0
 16 25  4  0
 20 24  1  0
 20 26  2  0
 21 23  4  0
 22 23  1  0
M  END
$$$$

 Created by Python create_sdf_string function

 26 28  0  0  0  0  0  0  0  0999 V2000
   12.4616    8.6700   19.4180 N   0  0  0  0  0  0  0  0  0  0  0  0
   11.8329   10.8148   18.6769 N   0  0  0  0  0  0  0  0  0  0  0  0
    6.1021    2.5564   21.0678 C   0  0  0  0  0  0  0  0  0  0  0  0
   10.9097   11.8051   18.4804 C   0  0  0  0  0  0  0  0  0  0  0  0
   11.2280   12.9135   17.5669 C   0  0  0  0  0  0  0  0  0  0  0  0
   12.3782    5.4231   20.7777 C   0  0  0  0  0  0  0  0  0  0  0  0
    7.7365    4.6508   21.6987 C   0  0  0  0  0  0  0  0  0  0  0  0
   13.0186   11.0102   18.0020 C   0  0  0  0  0  0  0  0  0  0  0  0
    8.6628    5.7088   21.8871 N   0  0  0  0  0  0  0  0  0  0  0  0
    5.6516    3.5258   21.9140 C   0  0  0  0  0  0  0  0  0  0  0  0
   11.5863    9.6815   19.4539 C   0  0  0  0  0  0  0  0  0  0  0  0
   12.9648    4.1543   20.9205 C   0  0  0  0  0  0  0  0  0  0  0  0
    8.2089    3.6265   20.8929 C   0  0  0  0  0  0  0  0  0  0  0  0
    7.3827    2.5724   20.5432 C   0  0  0  0  0  0  0  0  0  0  0  0
   11.1529    7.2750   20.8025 C   0  0  0  0  0  0  0  0  0  0  0  0
   10.2573    8.3215   20.9827 C   0  0  0  0  0  0  0  0  0  0  0  0
   11.1606    5.9378   21.2366 N   0  0  0  0  0  0  0  0  0  0  0  0
    9.8932   11.6736   19.0677 O   0  0  0  0  0  0  0  0  0  0  0  0
    6.4470    4.5850   22.2321 C   0  0  0  0  0  0  0  0  0  0  0  0
    8.4619    6.9895   22.2968 C   0  0  0  0  0  0  0  0  0  0  0  0
   12.2747    7.5102   20.0420 C   0  0  0  0  0  0  0  0  0  0  0  0
   14.2544    6.2142   19.4191 C   0  0  0  0  0  0  0  0  0  0  0  0
   13.0695    6.3705   20.0375 N   0  0  0  0  0  0  0  0  0  0  0  0
    9.1913    8.0876   21.8361 N   0  0  0  0  0  0  0  0  0  0  0  0
   10.4739    9.4813   20.2889 C   0  0  0  0  0  0  0  0  0  0  0  0
    7.5551    7.1270   23.1200 O   0  0  0  0  0  0  0  0  0  0  0  0
  1 11  4  0
  1 21  4  0
  2  4  1  0
  2  8  1  0
  2 11  1  0
  3 10  4  0
  3 14  4  0
  4  5  1  0
  4 18  2  0
  6 12  1  0
  6 17  4  0
  6 23  4  0
  7  9  1  0
  7 13  4  0
  7 19  4  0
  9 20  1  0
 10 19  4  0
 11 25  4  0
 13 14  4  0
 15 16  4  0
 15 17  4  0
 15 21  4  0
 16 24  1  0
 16 25  4  0
 20 24  1  0
 20 26  2  0
 21 23  4  0
 22 23  1  0
M  END
$$$$

 Created by Python create_sdf_string function

 26 28  0  0  0  0  0  0  0  0999 V2000
   12.4616    8.6700   19.4180 N   0  0  0  0  0  0  0  0  0  0  0  0
   11.8329   10.8148   18.6769 N   0  0  0  0  0  0  0  0  0  0  0  0
    6.1021    2.5564   21.0678 C   0  0  0  0  0  0  0  0  0  0  0  0
   10.9097   11.8051   18.4804 C   0  0  0  0  0  0  0  0  0  0  0  0
   11.2280   12.9135   17.5669 C   0  0  0  0  0  0  0  0  0  0  0  0
   12.3782    5.4231   20.7777 C   0  0  0  0  0  0  0  0  0  0  0  0
    7.7365    4.6508   21.6987 C   0  0  0  0  0  0  0  0  0  0  0  0
   13.0186   11.0102   18.0020 C   0  0  0  0  0  0  0  0  0  0  0  0
    8.6628    5.7088   21.8871 N   0  0  0  0  0  0  0  0  0  0  0  0
    5.6516    3.5258   21.9140 C   0  0  0  0  0  0  0  0  0  0  0  0
   11.5863    9.6815   19.4539 C   0  0  0  0  0  0  0  0  0  0  0  0
   12.9648    4.1543   20.9205 C   0  0  0  0  0  0  0  0  0  0  0  0
    8.2089    3.6265   20.8929 C   0  0  0  0  0  0  0  0  0  0  0  0
    7.3827    2.5724   20.5432 C   0  0  0  0  0  0  0  0  0  0  0  0
   11.1529    7.2750   20.8025 C   0  0  0  0  0  0  0  0  0  0  0  0
   10.2573    8.3215   20.9827 C   0  0  0  0  0  0  0  0  0  0  0  0
   11.1606    5.9378   21.2366 N   0  0  0  0  0  0  0  0  0  0  0  0
    9.8932   11.6736   19.0677 O   0  0  0  0  0  0  0  0  0  0  0  0
    6.4470    4.5850   22.2321 C   0  0  0  0  0  0  0  0  0  0  0  0
    8.4619    6.9895   22.2968 C   0  0  0  0  0  0  0  0  0  0  0  0
   12.2747    7.5102   20.0420 C   0  0  0  0  0  0  0  0  0  0  0  0
   14.2544    6.2142   19.4191 C   0  0  0  0  0  0  0  0  0  0  0  0
   13.0695    6.3705   20.0375 N   0  0  0  0  0  0  0  0  0  0  0  0
    9.1913    8.0876   21.8361 N   0  0  0  0  0  0  0  0  0  0  0  0
   10.4739    9.4813   20.2889 C   0  0  0  0  0  0  0  0  0  0  0  0
    7.5551    7.1270   23.1200 O   0  0  0  0  0  0  0  0  0  0  0  0
  1 11  4  0
  1 21  4  0
  2  4  1  0
  2  8  1  0
  2 11  1  0
  3 10  4  0
  3 14  4  0
  4  5  1  0
  4 18  2  0
  6 12  1  0
  6 17  4  0
  6 23  4  0
  7  9  1  0
  7 13  4  0
  7 19  4  0
  9 20  1  0
 10 19  4  0
 11 25  4  0
 13 14  4  0
 15 16  4  0
 15 17  4  0
 15 21  4  0
 16 24  1  0
 16 25  4  0
 20 24  1  0
 20 26  2  0
 21 23  4  0
 22 23  1  0
M  END
$$$$

 Created by Python create_sdf_string function

 26 28  0  0  0  0  0  0  0  0999 V2000
   12.4616    8.6700   19.4180 N   0  0  0  0  0  0  0  0  0  0  0  0
   11.8329   10.8148   18.6769 N   0  0  0  0  0  0  0  0  0  0  0  0
    6.1021    2.5564   21.0678 C   0  0  0  0  0  0  0  0  0  0  0  0
   10.9097   11.8051   18.4804 C   0  0  0  0  0  0  0  0  0  0  0  0
   11.2280   12.9135   17.5669 C   0  0  0  0  0  0  0  0  0  0  0  0
   12.3782    5.4231   20.7777 C   0  0  0  0  0  0  0  0  0  0  0  0
    7.7365    4.6508   21.6987 C   0  0  0  0  0  0  0  0  0  0  0  0
   13.0186   11.0102   18.0020 C   0  0  0  0  0  0  0  0  0  0  0  0
    8.6628    5.7088   21.8871 N   0  0  0  0  0  0  0  0  0  0  0  0
    5.6516    3.5258   21.9140 C   0  0  0  0  0  0  0  0  0  0  0  0
   11.5863    9.6815   19.4539 C   0  0  0  0  0  0  0  0  0  0  0  0
   12.9648    4.1543   20.9205 C   0  0  0  0  0  0  0  0  0  0  0  0
    8.2089    3.6265   20.8929 C   0  0  0  0  0  0  0  0  0  0  0  0
    7.3827    2.5724   20.5432 C   0  0  0  0  0  0  0  0  0  0  0  0
   11.1529    7.2750   20.8025 C   0  0  0  0  0  0  0  0  0  0  0  0
   10.2573    8.3215   20.9827 C   0  0  0  0  0  0  0  0  0  0  0  0
   11.1606    5.9378   21.2366 N   0  0  0  0  0  0  0  0  0  0  0  0
    9.8932   11.6736   19.0677 O   0  0  0  0  0  0  0  0  0  0  0  0
    6.4470    4.5850   22.2321 C   0  0  0  0  0  0  0  0  0  0  0  0
    8.4619    6.9895   22.2968 C   0  0  0  0  0  0  0  0  0  0  0  0
   12.2747    7.5102   20.0420 C   0  0  0  0  0  0  0  0  0  0  0  0
   14.2544    6.2142   19.4191 C   0  0  0  0  0  0  0  0  0  0  0  0
   13.0695    6.3705   20.0375 N   0  0  0  0  0  0  0  0  0  0  0  0
    9.1913    8.0876   21.8361 N   0  0  0  0  0  0  0  0  0  0  0  0
   10.4739    9.4813   20.2889 C   0  0  0  0  0  0  0  0  0  0  0  0
    7.5551    7.1270   23.1200 O   0  0  0  0  0  0  0  0  0  0  0  0
  1 11  4  0
  1 21  4  0
  2  4  1  0
  2  8  1  0
  2 11  1  0
  3 10  4  0
  3 14  4  0
  4  5  1  0
  4 18  2  0
  6 12  1  0
  6 17  4  0
  6 23  4  0
  7  9  1  0
  7 13  4  0
  7 19  4  0
  9 20  1  0
 10 19  4  0
 11 25  4  0
 13 14  4  0
 15 16  4  0
 15 17  4  0
 15 21  4  0
 16 24  1  0
 16 25  4  0
 20 24  1  0
 20 26  2  0
 21 23  4  0
 22 23  1  0
M  END
$$$$

 Created by Python create_sdf_string function

 26 28  0  0  0  0  0  0  0  0999 V2000
   12.4616    8.6700   19.4180 N   0  0  0  0  0  0  0  0  0  0  0  0
   11.8329   10.8148   18.6769 N   0  0  0  0  0  0  0  0  0  0  0  0
    6.1021    2.5564   21.0678 C   0  0  0  0  0  0  0  0  0  0  0  0
   10.9097   11.8051   18.4804 C   0  0  0  0  0  0  0  0  0  0  0  0
   11.2280   12.9135   17.5669 C   0  0  0  0  0  0  0  0  0  0  0  0
   12.3782    5.4231   20.7777 C   0  0  0  0  0  0  0  0  0  0  0  0
    7.7365    4.6508   21.6987 C   0  0  0  0  0  0  0  0  0  0  0  0
   13.0186   11.0102   18.0020 C   0  0  0  0  0  0  0  0  0  0  0  0
    8.6628    5.7088   21.8871 N   0  0  0  0  0  0  0  0  0  0  0  0
    5.6516    3.5258   21.9140 C   0  0  0  0  0  0  0  0  0  0  0  0
   11.5863    9.6815   19.4539 C   0  0  0  0  0  0  0  0  0  0  0  0
   12.9648    4.1543   20.9205 C   0  0  0  0  0  0  0  0  0  0  0  0
    8.2089    3.6265   20.8929 C   0  0  0  0  0  0  0  0  0  0  0  0
    7.3827    2.5724   20.5432 C   0  0  0  0  0  0  0  0  0  0  0  0
   11.1529    7.2750   20.8025 C   0  0  0  0  0  0  0  0  0  0  0  0
   10.2573    8.3215   20.9827 C   0  0  0  0  0  0  0  0  0  0  0  0
   11.1606    5.9378   21.2366 N   0  0  0  0  0  0  0  0  0  0  0  0
    9.8932   11.6736   19.0677 O   0  0  0  0  0  0  0  0  0  0  0  0
    6.4470    4.5850   22.2321 C   0  0  0  0  0  0  0  0  0  0  0  0
    8.4619    6.9895   22.2968 C   0  0  0  0  0  0  0  0  0  0  0  0
   12.2747    7.5102   20.0420 C   0  0  0  0  0  0  0  0  0  0  0  0
   14.2544    6.2142   19.4191 C   0  0  0  0  0  0  0  0  0  0  0  0
   13.0695    6.3705   20.0375 N   0  0  0  0  0  0  0  0  0  0  0  0
    9.1913    8.0876   21.8361 N   0  0  0  0  0  0  0  0  0  0  0  0
   10.4739    9.4813   20.2889 C   0  0  0  0  0  0  0  0  0  0  0  0
    7.5551    7.1270   23.1200 O   0  0  0  0  0  0  0  0  0  0  0  0
  1 11  4  0
  1 21  4  0
  2  4  1  0
  2  8  1  0
  2 11  1  0
  3 10  4  0
  3 14  4  0
  4  5  1  0
  4 18  2  0
  6 12  1  0
  6 17  4  0
  6 23  4  0
  7  9  1  0
  7 13  4  0
  7 19  4  0
  9 20  1  0
 10 19  4  0
 11 25  4  0
 13 14  4  0
 15 16  4  0
 15 17  4  0
 15 21  4  0
 16 24  1  0
 16 25  4  0
 20 24  1  0
 20 26  2  0
 21 23  4  0
 22 23  1  0
M  END
$$$$

 Created by Python create_sdf_string function

 26 28  0  0  0  0  0  0  0  0999 V2000
   12.4616    8.6700   19.4180 N   0  0  0  0  0  0  0  0  0  0  0  0
   11.8329   10.8148   18.6769 N   0  0  0  0  0  0  0  0  0  0  0  0
    6.1021    2.5564   21.0678 C   0  0  0  0  0  0  0  0  0  0  0  0
   10.9097   11.8051   18.4804 C   0  0  0  0  0  0  0  0  0  0  0  0
   11.2280   12.9135   17.5669 C   0  0  0  0  0  0  0  0  0  0  0  0
   12.3782    5.4231   20.7777 C   0  0  0  0  0  0  0  0  0  0  0  0
    7.7365    4.6508   21.6987 C   0  0  0  0  0  0  0  0  0  0  0  0
   13.0186   11.0102   18.0020 C   0  0  0  0  0  0  0  0  0  0  0  0
    8.6628    5.7088   21.8871 N   0  0  0  0  0  0  0  0  0  0  0  0
    5.6516    3.5258   21.9140 C   0  0  0  0  0  0  0  0  0  0  0  0
   11.5863    9.6815   19.4539 C   0  0  0  0  0  0  0  0  0  0  0  0
   12.9648    4.1543   20.9205 C   0  0  0  0  0  0  0  0  0  0  0  0
    8.2089    3.6265   20.8929 C   0  0  0  0  0  0  0  0  0  0  0  0
    7.3827    2.5724   20.5432 C   0  0  0  0  0  0  0  0  0  0  0  0
   11.1529    7.2750   20.8025 C   0  0  0  0  0  0  0  0  0  0  0  0
   10.2573    8.3215   20.9827 C   0  0  0  0  0  0  0  0  0  0  0  0
   11.1606    5.9378   21.2366 N   0  0  0  0  0  0  0  0  0  0  0  0
    9.8932   11.6736   19.0677 O   0  0  0  0  0  0  0  0  0  0  0  0
    6.4470    4.5850   22.2321 C   0  0  0  0  0  0  0  0  0  0  0  0
    8.4619    6.9895   22.2968 C   0  0  0  0  0  0  0  0  0  0  0  0
   12.2747    7.5102   20.0420 C   0  0  0  0  0  0  0  0  0  0  0  0
   14.2544    6.2142   19.4191 C   0  0  0  0  0  0  0  0  0  0  0  0
   13.0695    6.3705   20.0375 N   0  0  0  0  0  0  0  0  0  0  0  0
    9.1913    8.0876   21.8361 N   0  0  0  0  0  0  0  0  0  0  0  0
   10.4739    9.4813   20.2889 C   0  0  0  0  0  0  0  0  0  0  0  0
    7.5551    7.1270   23.1200 O   0  0  0  0  0  0  0  0  0  0  0  0
  1 11  4  0
  1 21  4  0
  2  4  1  0
  2  8  1  0
  2 11  1  0
  3 10  4  0
  3 14  4  0
  4  5  1  0
  4 18  2  0
  6 12  1  0
  6 17  4  0
  6 23  4  0
  7  9  1  0
  7 13  4  0
  7 19  4  0
  9 20  1  0
 10 19  4  0
 11 25  4  0
 13 14  4  0
 15 16  4  0
 15 17  4  0
 15 21  4  0
 16 24  1  0
 16 25  4  0
 20 24  1  0
 20 26  2  0
 21 23  4  0
 22 23  1  0
M  END
$$$$

 Created by Python create_sdf_string function

 26 28  0  0  0  0  0  0  0  0999 V2000
   12.4616    8.6700   19.4180 N   0  0  0  0  0  0  0  0  0  0  0  0
   11.8329   10.8148   18.6769 N   0  0  0  0  0  0  0  0  0  0  0  0
    6.1021    2.5564   21.0678 C   0  0  0  0  0  0  0  0  0  0  0  0
   10.9097   11.8051   18.4804 C   0  0  0  0  0  0  0  0  0  0  0  0
   11.2280   12.9135   17.5669 C   0  0  0  0  0  0  0  0  0  0  0  0
   12.3782    5.4231   20.7777 C   0  0  0  0  0  0  0  0  0  0  0  0
    7.7365    4.6508   21.6987 C   0  0  0  0  0  0  0  0  0  0  0  0
   13.0186   11.0102   18.0020 C   0  0  0  0  0  0  0  0  0  0  0  0
    8.6628    5.7088   21.8871 N   0  0  0  0  0  0  0  0  0  0  0  0
    5.6516    3.5258   21.9140 C   0  0  0  0  0  0  0  0  0  0  0  0
   11.5863    9.6815   19.4539 C   0  0  0  0  0  0  0  0  0  0  0  0
   12.9648    4.1543   20.9205 C   0  0  0  0  0  0  0  0  0  0  0  0
    8.2089    3.6265   20.8929 C   0  0  0  0  0  0  0  0  0  0  0  0
    7.3827    2.5724   20.5432 C   0  0  0  0  0  0  0  0  0  0  0  0
   11.1529    7.2750   20.8025 C   0  0  0  0  0  0  0  0  0  0  0  0
   10.2573    8.3215   20.9827 C   0  0  0  0  0  0  0  0  0  0  0  0
   11.1606    5.9378   21.2366 N   0  0  0  0  0  0  0  0  0  0  0  0
    9.8932   11.6736   19.0677 O   0  0  0  0  0  0  0  0  0  0  0  0
    6.4470    4.5850   22.2321 C   0  0  0  0  0  0  0  0  0  0  0  0
    8.4619    6.9895   22.2968 C   0  0  0  0  0  0  0  0  0  0  0  0
   12.2747    7.5102   20.0420 C   0  0  0  0  0  0  0  0  0  0  0  0
   14.2544    6.2142   19.4191 C   0  0  0  0  0  0  0  0  0  0  0  0
   13.0695    6.3705   20.0375 N   0  0  0  0  0  0  0  0  0  0  0  0
    9.1913    8.0876   21.8361 N   0  0  0  0  0  0  0  0  0  0  0  0
   10.4739    9.4813   20.2889 C   0  0  0  0  0  0  0  0  0  0  0  0
    7.5551    7.1270   23.1200 O   0  0  0  0  0  0  0  0  0  0  0  0
  1 11  4  0
  1 21  4  0
  2  4  1  0
  2  8  1  0
  2 11  1  0
  3 10  4  0
  3 14  4  0
  4  5  1  0
  4 18  2  0
  6 12  1  0
  6 17  4  0
  6 23  4  0
  7  9  1  0
  7 13  4  0
  7 19  4  0
  9 20  1  0
 10 19  4  0
 11 25  4  0
 13 14  4  0
 15 16  4  0
 15 17  4  0
 15 21  4  0
 16 24  1  0
 16 25  4  0
 20 24  1  0
 20 26  2  0
 21 23  4  0
 22 23  1  0
M  END
$$$$

 Created by Python create_sdf_string function

 26 28  0  0  0  0  0  0  0  0999 V2000
   12.4616    8.6700   19.4180 N   0  0  0  0  0  0  0  0  0  0  0  0
   11.8329   10.8148   18.6769 N   0  0  0  0  0  0  0  0  0  0  0  0
    6.1021    2.5564   21.0678 C   0  0  0  0  0  0  0  0  0  0  0  0
   10.9097   11.8051   18.4804 C   0  0  0  0  0  0  0  0  0  0  0  0
   11.2280   12.9135   17.5669 C   0  0  0  0  0  0  0  0  0  0  0  0
   12.3782    5.4231   20.7777 C   0  0  0  0  0  0  0  0  0  0  0  0
    7.7365    4.6508   21.6987 C   0  0  0  0  0  0  0  0  0  0  0  0
   13.0186   11.0102   18.0020 C   0  0  0  0  0  0  0  0  0  0  0  0
    8.6628    5.7088   21.8871 N   0  0  0  0  0  0  0  0  0  0  0  0
    5.6516    3.5258   21.9140 C   0  0  0  0  0  0  0  0  0  0  0  0
   11.5863    9.6815   19.4539 C   0  0  0  0  0  0  0  0  0  0  0  0
   12.9648    4.1543   20.9205 C   0  0  0  0  0  0  0  0  0  0  0  0
    8.2089    3.6265   20.8929 C   0  0  0  0  0  0  0  0  0  0  0  0
    7.3827    2.5724   20.5432 C   0  0  0  0  0  0  0  0  0  0  0  0
   11.1529    7.2750   20.8025 C   0  0  0  0  0  0  0  0  0  0  0  0
   10.2573    8.3215   20.9827 C   0  0  0  0  0  0  0  0  0  0  0  0
   11.1606    5.9378   21.2366 N   0  0  0  0  0  0  0  0  0  0  0  0
    9.8932   11.6736   19.0677 O   0  0  0  0  0  0  0  0  0  0  0  0
    6.4470    4.5850   22.2321 C   0  0  0  0  0  0  0  0  0  0  0  0
    8.4619    6.9895   22.2968 C   0  0  0  0  0  0  0  0  0  0  0  0
   12.2747    7.5102   20.0420 C   0  0  0  0  0  0  0  0  0  0  0  0
   14.2544    6.2142   19.4191 C   0  0  0  0  0  0  0  0  0  0  0  0
   13.0695    6.3705   20.0375 N   0  0  0  0  0  0  0  0  0  0  0  0
    9.1913    8.0876   21.8361 N   0  0  0  0  0  0  0  0  0  0  0  0
   10.4739    9.4813   20.2889 C   0  0  0  0  0  0  0  0  0  0  0  0
    7.5551    7.1270   23.1200 O   0  0  0  0  0  0  0  0  0  0  0  0
  1 11  4  0
  1 21  4  0
  2  4  1  0
  2  8  1  0
  2 11  1  0
  3 10  4  0
  3 14  4  0
  4  5  1  0
  4 18  2  0
  6 12  1  0
  6 17  4  0
  6 23  4  0
  7  9  1  0
  7 13  4  0
  7 19  4  0
  9 20  1  0
 10 19  4  0
 11 25  4  0
 13 14  4  0
 15 16  4  0
 15 17  4  0
 15 21  4  0
 16 24  1  0
 16 25  4  0
 20 24  1  0
 20 26  2  0
 21 23  4  0
 22 23  1  0
M  END
$$$$

 Created by Python create_sdf_string function

 26 28  0  0  0  0  0  0  0  0999 V2000
   12.4616    8.6700   19.4180 N   0  0  0  0  0  0  0  0  0  0  0  0
   11.8329   10.8148   18.6769 N   0  0  0  0  0  0  0  0  0  0  0  0
    6.1021    2.5564   21.0678 C   0  0  0  0  0  0  0  0  0  0  0  0
   10.9097   11.8051   18.4804 C   0  0  0  0  0  0  0  0  0  0  0  0
   11.2280   12.9135   17.5669 C   0  0  0  0  0  0  0  0  0  0  0  0
   12.3782    5.4231   20.7777 C   0  0  0  0  0  0  0  0  0  0  0  0
    7.7365    4.6508   21.6987 C   0  0  0  0  0  0  0  0  0  0  0  0
   13.0186   11.0102   18.0020 C   0  0  0  0  0  0  0  0  0  0  0  0
    8.6628    5.7088   21.8871 N   0  0  0  0  0  0  0  0  0  0  0  0
    5.6516    3.5258   21.9140 C   0  0  0  0  0  0  0  0  0  0  0  0
   11.5863    9.6815   19.4539 C   0  0  0  0  0  0  0  0  0  0  0  0
   12.9648    4.1543   20.9205 C   0  0  0  0  0  0  0  0  0  0  0  0
    8.2089    3.6265   20.8929 C   0  0  0  0  0  0  0  0  0  0  0  0
    7.3827    2.5724   20.5432 C   0  0  0  0  0  0  0  0  0  0  0  0
   11.1529    7.2750   20.8025 C   0  0  0  0  0  0  0  0  0  0  0  0
   10.2573    8.3215   20.9827 C   0  0  0  0  0  0  0  0  0  0  0  0
   11.1606    5.9378   21.2366 N   0  0  0  0  0  0  0  0  0  0  0  0
    9.8932   11.6736   19.0677 O   0  0  0  0  0  0  0  0  0  0  0  0
    6.4470    4.5850   22.2321 C   0  0  0  0  0  0  0  0  0  0  0  0
    8.4619    6.9895   22.2968 C   0  0  0  0  0  0  0  0  0  0  0  0
   12.2747    7.5102   20.0420 C   0  0  0  0  0  0  0  0  0  0  0  0
   14.2544    6.2142   19.4191 C   0  0  0  0  0  0  0  0  0  0  0  0
   13.0695    6.3705   20.0375 N   0  0  0  0  0  0  0  0  0  0  0  0
    9.1913    8.0876   21.8361 N   0  0  0  0  0  0  0  0  0  0  0  0
   10.4739    9.4813   20.2889 C   0  0  0  0  0  0  0  0  0  0  0  0
    7.5551    7.1270   23.1200 O   0  0  0  0  0  0  0  0  0  0  0  0
  1 11  4  0
  1 21  4  0
  2  4  1  0
  2  8  1  0
  2 11  1  0
  3 10  4  0
  3 14  4  0
  4  5  1  0
  4 18  2  0
  6 12  1  0
  6 17  4  0
  6 23  4  0
  7  9  1  0
  7 13  4  0
  7 19  4  0
  9 20  1  0
 10 19  4  0
 11 25  4  0
 13 14  4  0
 15 16  4  0
 15 17  4  0
 15 21  4  0
 16 24  1  0
 16 25  4  0
 20 24  1  0
 20 26  2  0
 21 23  4  0
 22 23  1  0
M  END
$$$$

 Created by Python create_sdf_string function

 26 28  0  0  0  0  0  0  0  0999 V2000
   12.4616    8.6700   19.4180 N   0  0  0  0  0  0  0  0  0  0  0  0
   11.8329   10.8148   18.6769 N   0  0  0  0  0  0  0  0  0  0  0  0
    6.1021    2.5564   21.0678 C   0  0  0  0  0  0  0  0  0  0  0  0
   10.9097   11.8051   18.4804 C   0  0  0  0  0  0  0  0  0  0  0  0
   11.2280   12.9135   17.5669 C   0  0  0  0  0  0  0  0  0  0  0  0
   12.3782    5.4231   20.7777 C   0  0  0  0  0  0  0  0  0  0  0  0
    7.7365    4.6508   21.6987 C   0  0  0  0  0  0  0  0  0  0  0  0
   13.0186   11.0102   18.0020 C   0  0  0  0  0  0  0  0  0  0  0  0
    8.6628    5.7088   21.8871 N   0  0  0  0  0  0  0  0  0  0  0  0
    5.6516    3.5258   21.9140 C   0  0  0  0  0  0  0  0  0  0  0  0
   11.5863    9.6815   19.4539 C   0  0  0  0  0  0  0  0  0  0  0  0
   12.9648    4.1543   20.9205 C   0  0  0  0  0  0  0  0  0  0  0  0
    8.2089    3.6265   20.8929 C   0  0  0  0  0  0  0  0  0  0  0  0
    7.3827    2.5724   20.5432 C   0  0  0  0  0  0  0  0  0  0  0  0
   11.1529    7.2750   20.8025 C   0  0  0  0  0  0  0  0  0  0  0  0
   10.2573    8.3215   20.9827 C   0  0  0  0  0  0  0  0  0  0  0  0
   11.1606    5.9378   21.2366 N   0  0  0  0  0  0  0  0  0  0  0  0
    9.8932   11.6736   19.0677 O   0  0  0  0  0  0  0  0  0  0  0  0
    6.4470    4.5850   22.2321 C   0  0  0  0  0  0  0  0  0  0  0  0
    8.4619    6.9895   22.2968 C   0  0  0  0  0  0  0  0  0  0  0  0
   12.2747    7.5102   20.0420 C   0  0  0  0  0  0  0  0  0  0  0  0
   14.2544    6.2142   19.4191 C   0  0  0  0  0  0  0  0  0  0  0  0
   13.0695    6.3705   20.0375 N   0  0  0  0  0  0  0  0  0  0  0  0
    9.1913    8.0876   21.8361 N   0  0  0  0  0  0  0  0  0  0  0  0
   10.4739    9.4813   20.2889 C   0  0  0  0  0  0  0  0  0  0  0  0
    7.5551    7.1270   23.1200 O   0  0  0  0  0  0  0  0  0  0  0  0
  1 11  4  0
  1 21  4  0
  2  4  1  0
  2  8  1  0
  2 11  1  0
  3 10  4  0
  3 14  4  0
  4  5  1  0
  4 18  2  0
  6 12  1  0
  6 17  4  0
  6 23  4  0
  7  9  1  0
  7 13  4  0
  7 19  4  0
  9 20  1  0
 10 19  4  0
 11 25  4  0
 13 14  4  0
 15 16  4  0
 15 17  4  0
 15 21  4  0
 16 24  1  0
 16 25  4  0
 20 24  1  0
 20 26  2  0
 21 23  4  0
 22 23  1  0
M  END
$$$$

 Created by Python create_sdf_string function

 26 28  0  0  0  0  0  0  0  0999 V2000
   12.4616    8.6700   19.4180 N   0  0  0  0  0  0  0  0  0  0  0  0
   11.8329   10.8148   18.6769 N   0  0  0  0  0  0  0  0  0  0  0  0
    6.1021    2.5564   21.0678 C   0  0  0  0  0  0  0  0  0  0  0  0
   10.9097   11.8051   18.4804 C   0  0  0  0  0  0  0  0  0  0  0  0
   11.2280   12.9135   17.5669 C   0  0  0  0  0  0  0  0  0  0  0  0
   12.3782    5.4231   20.7777 C   0  0  0  0  0  0  0  0  0  0  0  0
    7.7365    4.6508   21.6987 C   0  0  0  0  0  0  0  0  0  0  0  0
   13.0186   11.0102   18.0020 C   0  0  0  0  0  0  0  0  0  0  0  0
    8.6628    5.7088   21.8871 N   0  0  0  0  0  0  0  0  0  0  0  0
    5.6516    3.5258   21.9140 C   0  0  0  0  0  0  0  0  0  0  0  0
   11.5863    9.6815   19.4539 C   0  0  0  0  0  0  0  0  0  0  0  0
   12.9648    4.1543   20.9205 C   0  0  0  0  0  0  0  0  0  0  0  0
    8.2089    3.6265   20.8929 C   0  0  0  0  0  0  0  0  0  0  0  0
    7.3827    2.5724   20.5432 C   0  0  0  0  0  0  0  0  0  0  0  0
   11.1529    7.2750   20.8025 C   0  0  0  0  0  0  0  0  0  0  0  0
   10.2573    8.3215   20.9827 C   0  0  0  0  0  0  0  0  0  0  0  0
   11.1606    5.9378   21.2366 N   0  0  0  0  0  0  0  0  0  0  0  0
    9.8932   11.6736   19.0677 O   0  0  0  0  0  0  0  0  0  0  0  0
    6.4470    4.5850   22.2321 C   0  0  0  0  0  0  0  0  0  0  0  0
    8.4619    6.9895   22.2968 C   0  0  0  0  0  0  0  0  0  0  0  0
   12.2747    7.5102   20.0420 C   0  0  0  0  0  0  0  0  0  0  0  0
   14.2544    6.2142   19.4191 C   0  0  0  0  0  0  0  0  0  0  0  0
   13.0695    6.3705   20.0375 N   0  0  0  0  0  0  0  0  0  0  0  0
    9.1913    8.0876   21.8361 N   0  0  0  0  0  0  0  0  0  0  0  0
   10.4739    9.4813   20.2889 C   0  0  0  0  0  0  0  0  0  0  0  0
    7.5551    7.1270   23.1200 O   0  0  0  0  0  0  0  0  0  0  0  0
  1 11  4  0
  1 21  4  0
  2  4  1  0
  2  8  1  0
  2 11  1  0
  3 10  4  0
  3 14  4  0
  4  5  1  0
  4 18  2  0
  6 12  1  0
  6 17  4  0
  6 23  4  0
  7  9  1  0
  7 13  4  0
  7 19  4  0
  9 20  1  0
 10 19  4  0
 11 25  4  0
 13 14  4  0
 15 16  4  0
 15 17  4  0
 15 21  4  0
 16 24  1  0
 16 25  4  0
 20 24  1  0
 20 26  2  0
 21 23  4  0
 22 23  1  0
M  END
$$$$

 Created by Python create_sdf_string function

 26 28  0  0  0  0  0  0  0  0999 V2000
   12.4616    8.6700   19.4180 N   0  0  0  0  0  0  0  0  0  0  0  0
   11.8329   10.8148   18.6769 N   0  0  0  0  0  0  0  0  0  0  0  0
    6.1021    2.5564   21.0678 C   0  0  0  0  0  0  0  0  0  0  0  0
   10.9097   11.8051   18.4804 C   0  0  0  0  0  0  0  0  0  0  0  0
   11.2280   12.9135   17.5669 C   0  0  0  0  0  0  0  0  0  0  0  0
   12.3782    5.4231   20.7777 C   0  0  0  0  0  0  0  0  0  0  0  0
    7.7365    4.6508   21.6987 C   0  0  0  0  0  0  0  0  0  0  0  0
   13.0186   11.0102   18.0020 C   0  0  0  0  0  0  0  0  0  0  0  0
    8.6628    5.7088   21.8871 N   0  0  0  0  0  0  0  0  0  0  0  0
    5.6516    3.5258   21.9140 C   0  0  0  0  0  0  0  0  0  0  0  0
   11.5863    9.6815   19.4539 C   0  0  0  0  0  0  0  0  0  0  0  0
   12.9648    4.1543   20.9205 C   0  0  0  0  0  0  0  0  0  0  0  0
    8.2089    3.6265   20.8929 C   0  0  0  0  0  0  0  0  0  0  0  0
    7.3827    2.5724   20.5432 C   0  0  0  0  0  0  0  0  0  0  0  0
   11.1529    7.2750   20.8025 C   0  0  0  0  0  0  0  0  0  0  0  0
   10.2573    8.3215   20.9827 C   0  0  0  0  0  0  0  0  0  0  0  0
   11.1606    5.9378   21.2366 N   0  0  0  0  0  0  0  0  0  0  0  0
    9.8932   11.6736   19.0677 O   0  0  0  0  0  0  0  0  0  0  0  0
    6.4470    4.5850   22.2321 C   0  0  0  0  0  0  0  0  0  0  0  0
    8.4619    6.9895   22.2968 C   0  0  0  0  0  0  0  0  0  0  0  0
   12.2747    7.5102   20.0420 C   0  0  0  0  0  0  0  0  0  0  0  0
   14.2544    6.2142   19.4191 C   0  0  0  0  0  0  0  0  0  0  0  0
   13.0695    6.3705   20.0375 N   0  0  0  0  0  0  0  0  0  0  0  0
    9.1913    8.0876   21.8361 N   0  0  0  0  0  0  0  0  0  0  0  0
   10.4739    9.4813   20.2889 C   0  0  0  0  0  0  0  0  0  0  0  0
    7.5551    7.1270   23.1200 O   0  0  0  0  0  0  0  0  0  0  0  0
  1 11  4  0
  1 21  4  0
  2  4  1  0
  2  8  1  0
  2 11  1  0
  3 10  4  0
  3 14  4  0
  4  5  1  0
  4 18  2  0
  6 12  1  0
  6 17  4  0
  6 23  4  0
  7  9  1  0
  7 13  4  0
  7 19  4  0
  9 20  1  0
 10 19  4  0
 11 25  4  0
 13 14  4  0
 15 16  4  0
 15 17  4  0
 15 21  4  0
 16 24  1  0
 16 25  4  0
 20 24  1  0
 20 26  2  0
 21 23  4  0
 22 23  1  0
M  END
$$$$

 Created by Python create_sdf_string function

 26 28  0  0  0  0  0  0  0  0999 V2000
   12.4616    8.6700   19.4180 N   0  0  0  0  0  0  0  0  0  0  0  0
   11.8329   10.8148   18.6769 N   0  0  0  0  0  0  0  0  0  0  0  0
    6.1021    2.5564   21.0678 C   0  0  0  0  0  0  0  0  0  0  0  0
   10.9097   11.8051   18.4804 C   0  0  0  0  0  0  0  0  0  0  0  0
   11.2280   12.9135   17.5669 C   0  0  0  0  0  0  0  0  0  0  0  0
   12.3782    5.4231   20.7777 C   0  0  0  0  0  0  0  0  0  0  0  0
    7.7365    4.6508   21.6987 C   0  0  0  0  0  0  0  0  0  0  0  0
   13.0186   11.0102   18.0020 C   0  0  0  0  0  0  0  0  0  0  0  0
    8.6628    5.7088   21.8871 N   0  0  0  0  0  0  0  0  0  0  0  0
    5.6516    3.5258   21.9140 C   0  0  0  0  0  0  0  0  0  0  0  0
   11.5863    9.6815   19.4539 C   0  0  0  0  0  0  0  0  0  0  0  0
   12.9648    4.1543   20.9205 C   0  0  0  0  0  0  0  0  0  0  0  0
    8.2089    3.6265   20.8929 C   0  0  0  0  0  0  0  0  0  0  0  0
    7.3827    2.5724   20.5432 C   0  0  0  0  0  0  0  0  0  0  0  0
   11.1529    7.2750   20.8025 C   0  0  0  0  0  0  0  0  0  0  0  0
   10.2573    8.3215   20.9827 C   0  0  0  0  0  0  0  0  0  0  0  0
   11.1606    5.9378   21.2366 N   0  0  0  0  0  0  0  0  0  0  0  0
    9.8932   11.6736   19.0677 O   0  0  0  0  0  0  0  0  0  0  0  0
    6.4470    4.5850   22.2321 C   0  0  0  0  0  0  0  0  0  0  0  0
    8.4619    6.9895   22.2968 C   0  0  0  0  0  0  0  0  0  0  0  0
   12.2747    7.5102   20.0420 C   0  0  0  0  0  0  0  0  0  0  0  0
   14.2544    6.2142   19.4191 C   0  0  0  0  0  0  0  0  0  0  0  0
   13.0695    6.3705   20.0375 N   0  0  0  0  0  0  0  0  0  0  0  0
    9.1913    8.0876   21.8361 N   0  0  0  0  0  0  0  0  0  0  0  0
   10.4739    9.4813   20.2889 C   0  0  0  0  0  0  0  0  0  0  0  0
    7.5551    7.1270   23.1200 O   0  0  0  0  0  0  0  0  0  0  0  0
  1 11  4  0
  1 21  4  0
  2  4  1  0
  2  8  1  0
  2 11  1  0
  3 10  4  0
  3 14  4  0
  4  5  1  0
  4 18  2  0
  6 12  1  0
  6 17  4  0
  6 23  4  0
  7  9  1  0
  7 13  4  0
  7 19  4  0
  9 20  1  0
 10 19  4  0
 11 25  4  0
 13 14  4  0
 15 16  4  0
 15 17  4  0
 15 21  4  0
 16 24  1  0
 16 25  4  0
 20 24  1  0
 20 26  2  0
 21 23  4  0
 22 23  1  0
M  END
$$$$

 Created by Python create_sdf_string function

 26 28  0  0  0  0  0  0  0  0999 V2000
   12.4616    8.6700   19.4180 N   0  0  0  0  0  0  0  0  0  0  0  0
   11.8329   10.8148   18.6769 N   0  0  0  0  0  0  0  0  0  0  0  0
    6.1021    2.5564   21.0678 C   0  0  0  0  0  0  0  0  0  0  0  0
   10.9097   11.8051   18.4804 C   0  0  0  0  0  0  0  0  0  0  0  0
   11.2280   12.9135   17.5669 C   0  0  0  0  0  0  0  0  0  0  0  0
   12.3782    5.4231   20.7777 C   0  0  0  0  0  0  0  0  0  0  0  0
    7.7365    4.6508   21.6987 C   0  0  0  0  0  0  0  0  0  0  0  0
   13.0186   11.0102   18.0020 C   0  0  0  0  0  0  0  0  0  0  0  0
    8.6628    5.7088   21.8871 N   0  0  0  0  0  0  0  0  0  0  0  0
    5.6516    3.5258   21.9140 C   0  0  0  0  0  0  0  0  0  0  0  0
   11.5863    9.6815   19.4539 C   0  0  0  0  0  0  0  0  0  0  0  0
   12.9648    4.1543   20.9205 C   0  0  0  0  0  0  0  0  0  0  0  0
    8.2089    3.6265   20.8929 C   0  0  0  0  0  0  0  0  0  0  0  0
    7.3827    2.5724   20.5432 C   0  0  0  0  0  0  0  0  0  0  0  0
   11.1529    7.2750   20.8025 C   0  0  0  0  0  0  0  0  0  0  0  0
   10.2573    8.3215   20.9827 C   0  0  0  0  0  0  0  0  0  0  0  0
   11.1606    5.9378   21.2366 N   0  0  0  0  0  0  0  0  0  0  0  0
    9.8932   11.6736   19.0677 O   0  0  0  0  0  0  0  0  0  0  0  0
    6.4470    4.5850   22.2321 C   0  0  0  0  0  0  0  0  0  0  0  0
    8.4619    6.9895   22.2968 C   0  0  0  0  0  0  0  0  0  0  0  0
   12.2747    7.5102   20.0420 C   0  0  0  0  0  0  0  0  0  0  0  0
   14.2544    6.2142   19.4191 C   0  0  0  0  0  0  0  0  0  0  0  0
   13.0695    6.3705   20.0375 N   0  0  0  0  0  0  0  0  0  0  0  0
    9.1913    8.0876   21.8361 N   0  0  0  0  0  0  0  0  0  0  0  0
   10.4739    9.4813   20.2889 C   0  0  0  0  0  0  0  0  0  0  0  0
    7.5551    7.1270   23.1200 O   0  0  0  0  0  0  0  0  0  0  0  0
  1 11  4  0
  1 21  4  0
  2  4  1  0
  2  8  1  0
  2 11  1  0
  3 10  4  0
  3 14  4  0
  4  5  1  0
  4 18  2  0
  6 12  1  0
  6 17  4  0
  6 23  4  0
  7  9  1  0
  7 13  4  0
  7 19  4  0
  9 20  1  0
 10 19  4  0
 11 25  4  0
 13 14  4  0
 15 16  4  0
 15 17  4  0
 15 21  4  0
 16 24  1  0
 16 25  4  0
 20 24  1  0
 20 26  2  0
 21 23  4  0
 22 23  1  0
M  END
$$$$

 Created by Python create_sdf_string function

 26 28  0  0  0  0  0  0  0  0999 V2000
   12.4616    8.6700   19.4180 N   0  0  0  0  0  0  0  0  0  0  0  0
   11.8329   10.8148   18.6769 N   0  0  0  0  0  0  0  0  0  0  0  0
    6.1021    2.5564   21.0678 C   0  0  0  0  0  0  0  0  0  0  0  0
   10.9097   11.8051   18.4804 C   0  0  0  0  0  0  0  0  0  0  0  0
   11.2280   12.9135   17.5669 C   0  0  0  0  0  0  0  0  0  0  0  0
   12.3782    5.4231   20.7777 C   0  0  0  0  0  0  0  0  0  0  0  0
    7.7365    4.6508   21.6987 C   0  0  0  0  0  0  0  0  0  0  0  0
   13.0186   11.0102   18.0020 C   0  0  0  0  0  0  0  0  0  0  0  0
    8.6628    5.7088   21.8871 N   0  0  0  0  0  0  0  0  0  0  0  0
    5.6516    3.5258   21.9140 C   0  0  0  0  0  0  0  0  0  0  0  0
   11.5863    9.6815   19.4539 C   0  0  0  0  0  0  0  0  0  0  0  0
   12.9648    4.1543   20.9205 C   0  0  0  0  0  0  0  0  0  0  0  0
    8.2089    3.6265   20.8929 C   0  0  0  0  0  0  0  0  0  0  0  0
    7.3827    2.5724   20.5432 C   0  0  0  0  0  0  0  0  0  0  0  0
   11.1529    7.2750   20.8025 C   0  0  0  0  0  0  0  0  0  0  0  0
   10.2573    8.3215   20.9827 C   0  0  0  0  0  0  0  0  0  0  0  0
   11.1606    5.9378   21.2366 N   0  0  0  0  0  0  0  0  0  0  0  0
    9.8932   11.6736   19.0677 O   0  0  0  0  0  0  0  0  0  0  0  0
    6.4470    4.5850   22.2321 C   0  0  0  0  0  0  0  0  0  0  0  0
    8.4619    6.9895   22.2968 C   0  0  0  0  0  0  0  0  0  0  0  0
   12.2747    7.5102   20.0420 C   0  0  0  0  0  0  0  0  0  0  0  0
   14.2544    6.2142   19.4191 C   0  0  0  0  0  0  0  0  0  0  0  0
   13.0695    6.3705   20.0375 N   0  0  0  0  0  0  0  0  0  0  0  0
    9.1913    8.0876   21.8361 N   0  0  0  0  0  0  0  0  0  0  0  0
   10.4739    9.4813   20.2889 C   0  0  0  0  0  0  0  0  0  0  0  0
    7.5551    7.1270   23.1200 O   0  0  0  0  0  0  0  0  0  0  0  0
  1 11  4  0
  1 21  4  0
  2  4  1  0
  2  8  1  0
  2 11  1  0
  3 10  4  0
  3 14  4  0
  4  5  1  0
  4 18  2  0
  6 12  1  0
  6 17  4  0
  6 23  4  0
  7  9  1  0
  7 13  4  0
  7 19  4  0
  9 20  1  0
 10 19  4  0
 11 25  4  0
 13 14  4  0
 15 16  4  0
 15 17  4  0
 15 21  4  0
 16 24  1  0
 16 25  4  0
 20 24  1  0
 20 26  2  0
 21 23  4  0
 22 23  1  0
M  END
$$$$

 Created by Python create_sdf_string function

 26 28  0  0  0  0  0  0  0  0999 V2000
   12.4616    8.6700   19.4180 N   0  0  0  0  0  0  0  0  0  0  0  0
   11.8329   10.8148   18.6769 N   0  0  0  0  0  0  0  0  0  0  0  0
    6.1021    2.5564   21.0678 C   0  0  0  0  0  0  0  0  0  0  0  0
   10.9097   11.8051   18.4804 C   0  0  0  0  0  0  0  0  0  0  0  0
   11.2280   12.9135   17.5669 C   0  0  0  0  0  0  0  0  0  0  0  0
   12.3782    5.4231   20.7777 C   0  0  0  0  0  0  0  0  0  0  0  0
    7.7365    4.6508   21.6987 C   0  0  0  0  0  0  0  0  0  0  0  0
   13.0186   11.0102   18.0020 C   0  0  0  0  0  0  0  0  0  0  0  0
    8.6628    5.7088   21.8871 N   0  0  0  0  0  0  0  0  0  0  0  0
    5.6516    3.5258   21.9140 C   0  0  0  0  0  0  0  0  0  0  0  0
   11.5863    9.6815   19.4539 C   0  0  0  0  0  0  0  0  0  0  0  0
   12.9648    4.1543   20.9205 C   0  0  0  0  0  0  0  0  0  0  0  0
    8.2089    3.6265   20.8929 C   0  0  0  0  0  0  0  0  0  0  0  0
    7.3827    2.5724   20.5432 C   0  0  0  0  0  0  0  0  0  0  0  0
   11.1529    7.2750   20.8025 C   0  0  0  0  0  0  0  0  0  0  0  0
   10.2573    8.3215   20.9827 C   0  0  0  0  0  0  0  0  0  0  0  0
   11.1606    5.9378   21.2366 N   0  0  0  0  0  0  0  0  0  0  0  0
    9.8932   11.6736   19.0677 O   0  0  0  0  0  0  0  0  0  0  0  0
    6.4470    4.5850   22.2321 C   0  0  0  0  0  0  0  0  0  0  0  0
    8.4619    6.9895   22.2968 C   0  0  0  0  0  0  0  0  0  0  0  0
   12.2747    7.5102   20.0420 C   0  0  0  0  0  0  0  0  0  0  0  0
   14.2544    6.2142   19.4191 C   0  0  0  0  0  0  0  0  0  0  0  0
   13.0695    6.3705   20.0375 N   0  0  0  0  0  0  0  0  0  0  0  0
    9.1913    8.0876   21.8361 N   0  0  0  0  0  0  0  0  0  0  0  0
   10.4739    9.4813   20.2889 C   0  0  0  0  0  0  0  0  0  0  0  0
    7.5551    7.1270   23.1200 O   0  0  0  0  0  0  0  0  0  0  0  0
  1 11  4  0
  1 21  4  0
  2  4  1  0
  2  8  1  0
  2 11  1  0
  3 10  4  0
  3 14  4  0
  4  5  1  0
  4 18  2  0
  6 12  1  0
  6 17  4  0
  6 23  4  0
  7  9  1  0
  7 13  4  0
  7 19  4  0
  9 20  1  0
 10 19  4  0
 11 25  4  0
 13 14  4  0
 15 16  4  0
 15 17  4  0
 15 21  4  0
 16 24  1  0
 16 25  4  0
 20 24  1  0
 20 26  2  0
 21 23  4  0
 22 23  1  0
M  END
$$$$

 Created by Python create_sdf_string function

 26 28  0  0  0  0  0  0  0  0999 V2000
   12.4616    8.6700   19.4180 N   0  0  0  0  0  0  0  0  0  0  0  0
   11.8329   10.8148   18.6769 N   0  0  0  0  0  0  0  0  0  0  0  0
    6.1021    2.5564   21.0678 C   0  0  0  0  0  0  0  0  0  0  0  0
   10.9097   11.8051   18.4804 C   0  0  0  0  0  0  0  0  0  0  0  0
   11.2280   12.9135   17.5669 C   0  0  0  0  0  0  0  0  0  0  0  0
   12.3782    5.4231   20.7777 C   0  0  0  0  0  0  0  0  0  0  0  0
    7.7365    4.6508   21.6987 C   0  0  0  0  0  0  0  0  0  0  0  0
   13.0186   11.0102   18.0020 C   0  0  0  0  0  0  0  0  0  0  0  0
    8.6628    5.7088   21.8871 N   0  0  0  0  0  0  0  0  0  0  0  0
    5.6516    3.5258   21.9140 C   0  0  0  0  0  0  0  0  0  0  0  0
   11.5863    9.6815   19.4539 C   0  0  0  0  0  0  0  0  0  0  0  0
   12.9648    4.1543   20.9205 C   0  0  0  0  0  0  0  0  0  0  0  0
    8.2089    3.6265   20.8929 C   0  0  0  0  0  0  0  0  0  0  0  0
    7.3827    2.5724   20.5432 C   0  0  0  0  0  0  0  0  0  0  0  0
   11.1529    7.2750   20.8025 C   0  0  0  0  0  0  0  0  0  0  0  0
   10.2573    8.3215   20.9827 C   0  0  0  0  0  0  0  0  0  0  0  0
   11.1606    5.9378   21.2366 N   0  0  0  0  0  0  0  0  0  0  0  0
    9.8932   11.6736   19.0677 O   0  0  0  0  0  0  0  0  0  0  0  0
    6.4470    4.5850   22.2321 C   0  0  0  0  0  0  0  0  0  0  0  0
    8.4619    6.9895   22.2968 C   0  0  0  0  0  0  0  0  0  0  0  0
   12.2747    7.5102   20.0420 C   0  0  0  0  0  0  0  0  0  0  0  0
   14.2544    6.2142   19.4191 C   0  0  0  0  0  0  0  0  0  0  0  0
   13.0695    6.3705   20.0375 N   0  0  0  0  0  0  0  0  0  0  0  0
    9.1913    8.0876   21.8361 N   0  0  0  0  0  0  0  0  0  0  0  0
   10.4739    9.4813   20.2889 C   0  0  0  0  0  0  0  0  0  0  0  0
    7.5551    7.1270   23.1200 O   0  0  0  0  0  0  0  0  0  0  0  0
  1 11  4  0
  1 21  4  0
  2  4  1  0
  2  8  1  0
  2 11  1  0
  3 10  4  0
  3 14  4  0
  4  5  1  0
  4 18  2  0
  6 12  1  0
  6 17  4  0
  6 23  4  0
  7  9  1  0
  7 13  4  0
  7 19  4  0
  9 20  1  0
 10 19  4  0
 11 25  4  0
 13 14  4  0
 15 16  4  0
 15 17  4  0
 15 21  4  0
 16 24  1  0
 16 25  4  0
 20 24  1  0
 20 26  2  0
 21 23  4  0
 22 23  1  0
M  END
$$$$

 Created by Python create_sdf_string function

 26 28  0  0  0  0  0  0  0  0999 V2000
   12.4616    8.6700   19.4180 N   0  0  0  0  0  0  0  0  0  0  0  0
   11.8329   10.8148   18.6769 N   0  0  0  0  0  0  0  0  0  0  0  0
    6.1021    2.5564   21.0678 C   0  0  0  0  0  0  0  0  0  0  0  0
   10.9097   11.8051   18.4804 C   0  0  0  0  0  0  0  0  0  0  0  0
   11.2280   12.9135   17.5669 C   0  0  0  0  0  0  0  0  0  0  0  0
   12.3782    5.4231   20.7777 C   0  0  0  0  0  0  0  0  0  0  0  0
    7.7365    4.6508   21.6987 C   0  0  0  0  0  0  0  0  0  0  0  0
   13.0186   11.0102   18.0020 C   0  0  0  0  0  0  0  0  0  0  0  0
    8.6628    5.7088   21.8871 N   0  0  0  0  0  0  0  0  0  0  0  0
    5.6516    3.5258   21.9140 C   0  0  0  0  0  0  0  0  0  0  0  0
   11.5863    9.6815   19.4539 C   0  0  0  0  0  0  0  0  0  0  0  0
   12.9648    4.1543   20.9205 C   0  0  0  0  0  0  0  0  0  0  0  0
    8.2089    3.6265   20.8929 C   0  0  0  0  0  0  0  0  0  0  0  0
    7.3827    2.5724   20.5432 C   0  0  0  0  0  0  0  0  0  0  0  0
   11.1529    7.2750   20.8025 C   0  0  0  0  0  0  0  0  0  0  0  0
   10.2573    8.3215   20.9827 C   0  0  0  0  0  0  0  0  0  0  0  0
   11.1606    5.9378   21.2366 N   0  0  0  0  0  0  0  0  0  0  0  0
    9.8932   11.6736   19.0677 O   0  0  0  0  0  0  0  0  0  0  0  0
    6.4470    4.5850   22.2321 C   0  0  0  0  0  0  0  0  0  0  0  0
    8.4619    6.9895   22.2968 C   0  0  0  0  0  0  0  0  0  0  0  0
   12.2747    7.5102   20.0420 C   0  0  0  0  0  0  0  0  0  0  0  0
   14.2544    6.2142   19.4191 C   0  0  0  0  0  0  0  0  0  0  0  0
   13.0695    6.3705   20.0375 N   0  0  0  0  0  0  0  0  0  0  0  0
    9.1913    8.0876   21.8361 N   0  0  0  0  0  0  0  0  0  0  0  0
   10.4739    9.4813   20.2889 C   0  0  0  0  0  0  0  0  0  0  0  0
    7.5551    7.1270   23.1200 O   0  0  0  0  0  0  0  0  0  0  0  0
  1 11  4  0
  1 21  4  0
  2  4  1  0
  2  8  1  0
  2 11  1  0
  3 10  4  0
  3 14  4  0
  4  5  1  0
  4 18  2  0
  6 12  1  0
  6 17  4  0
  6 23  4  0
  7  9  1  0
  7 13  4  0
  7 19  4  0
  9 20  1  0
 10 19  4  0
 11 25  4  0
 13 14  4  0
 15 16  4  0
 15 17  4  0
 15 21  4  0
 16 24  1  0
 16 25  4  0
 20 24  1  0
 20 26  2  0
 21 23  4  0
 22 23  1  0
M  END
$$$$

 Created by Python create_sdf_string function

 26 28  0  0  0  0  0  0  0  0999 V2000
   12.4616    8.6700   19.4180 N   0  0  0  0  0  0  0  0  0  0  0  0
   11.8329   10.8148   18.6769 N   0  0  0  0  0  0  0  0  0  0  0  0
    6.1021    2.5564   21.0678 C   0  0  0  0  0  0  0  0  0  0  0  0
   10.9097   11.8051   18.4804 C   0  0  0  0  0  0  0  0  0  0  0  0
   11.2280   12.9135   17.5669 C   0  0  0  0  0  0  0  0  0  0  0  0
   12.3782    5.4231   20.7777 C   0  0  0  0  0  0  0  0  0  0  0  0
    7.7365    4.6508   21.6987 C   0  0  0  0  0  0  0  0  0  0  0  0
   13.0186   11.0102   18.0020 C   0  0  0  0  0  0  0  0  0  0  0  0
    8.6628    5.7088   21.8871 N   0  0  0  0  0  0  0  0  0  0  0  0
    5.6516    3.5258   21.9140 C   0  0  0  0  0  0  0  0  0  0  0  0
   11.5863    9.6815   19.4539 C   0  0  0  0  0  0  0  0  0  0  0  0
   12.9648    4.1543   20.9205 C   0  0  0  0  0  0  0  0  0  0  0  0
    8.2089    3.6265   20.8929 C   0  0  0  0  0  0  0  0  0  0  0  0
    7.3827    2.5724   20.5432 C   0  0  0  0  0  0  0  0  0  0  0  0
   11.1529    7.2750   20.8025 C   0  0  0  0  0  0  0  0  0  0  0  0
   10.2573    8.3215   20.9827 C   0  0  0  0  0  0  0  0  0  0  0  0
   11.1606    5.9378   21.2366 N   0  0  0  0  0  0  0  0  0  0  0  0
    9.8932   11.6736   19.0677 O   0  0  0  0  0  0  0  0  0  0  0  0
    6.4470    4.5850   22.2321 C   0  0  0  0  0  0  0  0  0  0  0  0
    8.4619    6.9895   22.2968 C   0  0  0  0  0  0  0  0  0  0  0  0
   12.2747    7.5102   20.0420 C   0  0  0  0  0  0  0  0  0  0  0  0
   14.2544    6.2142   19.4191 C   0  0  0  0  0  0  0  0  0  0  0  0
   13.0695    6.3705   20.0375 N   0  0  0  0  0  0  0  0  0  0  0  0
    9.1913    8.0876   21.8361 N   0  0  0  0  0  0  0  0  0  0  0  0
   10.4739    9.4813   20.2889 C   0  0  0  0  0  0  0  0  0  0  0  0
    7.5551    7.1270   23.1200 O   0  0  0  0  0  0  0  0  0  0  0  0
  1 11  4  0
  1 21  4  0
  2  4  1  0
  2  8  1  0
  2 11  1  0
  3 10  4  0
  3 14  4  0
  4  5  1  0
  4 18  2  0
  6 12  1  0
  6 17  4  0
  6 23  4  0
  7  9  1  0
  7 13  4  0
  7 19  4  0
  9 20  1  0
 10 19  4  0
 11 25  4  0
 13 14  4  0
 15 16  4  0
 15 17  4  0
 15 21  4  0
 16 24  1  0
 16 25  4  0
 20 24  1  0
 20 26  2  0
 21 23  4  0
 22 23  1  0
M  END
$$$$

 Created by Python create_sdf_string function

 26 28  0  0  0  0  0  0  0  0999 V2000
   12.4616    8.6700   19.4180 N   0  0  0  0  0  0  0  0  0  0  0  0
   11.8329   10.8148   18.6769 N   0  0  0  0  0  0  0  0  0  0  0  0
    6.1021    2.5564   21.0678 C   0  0  0  0  0  0  0  0  0  0  0  0
   10.9097   11.8051   18.4804 C   0  0  0  0  0  0  0  0  0  0  0  0
   11.2280   12.9135   17.5669 C   0  0  0  0  0  0  0  0  0  0  0  0
   12.3782    5.4231   20.7777 C   0  0  0  0  0  0  0  0  0  0  0  0
    7.7365    4.6508   21.6987 C   0  0  0  0  0  0  0  0  0  0  0  0
   13.0186   11.0102   18.0020 C   0  0  0  0  0  0  0  0  0  0  0  0
    8.6628    5.7088   21.8871 N   0  0  0  0  0  0  0  0  0  0  0  0
    5.6516    3.5258   21.9140 C   0  0  0  0  0  0  0  0  0  0  0  0
   11.5863    9.6815   19.4539 C   0  0  0  0  0  0  0  0  0  0  0  0
   12.9648    4.1543   20.9205 C   0  0  0  0  0  0  0  0  0  0  0  0
    8.2089    3.6265   20.8929 C   0  0  0  0  0  0  0  0  0  0  0  0
    7.3827    2.5724   20.5432 C   0  0  0  0  0  0  0  0  0  0  0  0
   11.1529    7.2750   20.8025 C   0  0  0  0  0  0  0  0  0  0  0  0
   10.2573    8.3215   20.9827 C   0  0  0  0  0  0  0  0  0  0  0  0
   11.1606    5.9378   21.2366 N   0  0  0  0  0  0  0  0  0  0  0  0
    9.8932   11.6736   19.0677 O   0  0  0  0  0  0  0  0  0  0  0  0
    6.4470    4.5850   22.2321 C   0  0  0  0  0  0  0  0  0  0  0  0
    8.4619    6.9895   22.2968 C   0  0  0  0  0  0  0  0  0  0  0  0
   12.2747    7.5102   20.0420 C   0  0  0  0  0  0  0  0  0  0  0  0
   14.2544    6.2142   19.4191 C   0  0  0  0  0  0  0  0  0  0  0  0
   13.0695    6.3705   20.0375 N   0  0  0  0  0  0  0  0  0  0  0  0
    9.1913    8.0876   21.8361 N   0  0  0  0  0  0  0  0  0  0  0  0
   10.4739    9.4813   20.2889 C   0  0  0  0  0  0  0  0  0  0  0  0
    7.5551    7.1270   23.1200 O   0  0  0  0  0  0  0  0  0  0  0  0
  1 11  4  0
  1 21  4  0
  2  4  1  0
  2  8  1  0
  2 11  1  0
  3 10  4  0
  3 14  4  0
  4  5  1  0
  4 18  2  0
  6 12  1  0
  6 17  4  0
  6 23  4  0
  7  9  1  0
  7 13  4  0
  7 19  4  0
  9 20  1  0
 10 19  4  0
 11 25  4  0
 13 14  4  0
 15 16  4  0
 15 17  4  0
 15 21  4  0
 16 24  1  0
 16 25  4  0
 20 24  1  0
 20 26  2  0
 21 23  4  0
 22 23  1  0
M  END
$$$$

 Created by Python create_sdf_string function

 26 28  0  0  0  0  0  0  0  0999 V2000
   12.4616    8.6700   19.4180 N   0  0  0  0  0  0  0  0  0  0  0  0
   11.8329   10.8148   18.6769 N   0  0  0  0  0  0  0  0  0  0  0  0
    6.1021    2.5564   21.0678 C   0  0  0  0  0  0  0  0  0  0  0  0
   10.9097   11.8051   18.4804 C   0  0  0  0  0  0  0  0  0  0  0  0
   11.2280   12.9135   17.5669 C   0  0  0  0  0  0  0  0  0  0  0  0
   12.3782    5.4231   20.7777 C   0  0  0  0  0  0  0  0  0  0  0  0
    7.7365    4.6508   21.6987 C   0  0  0  0  0  0  0  0  0  0  0  0
   13.0186   11.0102   18.0020 C   0  0  0  0  0  0  0  0  0  0  0  0
    8.6628    5.7088   21.8871 N   0  0  0  0  0  0  0  0  0  0  0  0
    5.6516    3.5258   21.9140 C   0  0  0  0  0  0  0  0  0  0  0  0
   11.5863    9.6815   19.4539 C   0  0  0  0  0  0  0  0  0  0  0  0
   12.9648    4.1543   20.9205 C   0  0  0  0  0  0  0  0  0  0  0  0
    8.2089    3.6265   20.8929 C   0  0  0  0  0  0  0  0  0  0  0  0
    7.3827    2.5724   20.5432 C   0  0  0  0  0  0  0  0  0  0  0  0
   11.1529    7.2750   20.8025 C   0  0  0  0  0  0  0  0  0  0  0  0
   10.2573    8.3215   20.9827 C   0  0  0  0  0  0  0  0  0  0  0  0
   11.1606    5.9378   21.2366 N   0  0  0  0  0  0  0  0  0  0  0  0
    9.8932   11.6736   19.0677 O   0  0  0  0  0  0  0  0  0  0  0  0
    6.4470    4.5850   22.2321 C   0  0  0  0  0  0  0  0  0  0  0  0
    8.4619    6.9895   22.2968 C   0  0  0  0  0  0  0  0  0  0  0  0
   12.2747    7.5102   20.0420 C   0  0  0  0  0  0  0  0  0  0  0  0
   14.2544    6.2142   19.4191 C   0  0  0  0  0  0  0  0  0  0  0  0
   13.0695    6.3705   20.0375 N   0  0  0  0  0  0  0  0  0  0  0  0
    9.1913    8.0876   21.8361 N   0  0  0  0  0  0  0  0  0  0  0  0
   10.4739    9.4813   20.2889 C   0  0  0  0  0  0  0  0  0  0  0  0
    7.5551    7.1270   23.1200 O   0  0  0  0  0  0  0  0  0  0  0  0
  1 11  4  0
  1 21  4  0
  2  4  1  0
  2  8  1  0
  2 11  1  0
  3 10  4  0
  3 14  4  0
  4  5  1  0
  4 18  2  0
  6 12  1  0
  6 17  4  0
  6 23  4  0
  7  9  1  0
  7 13  4  0
  7 19  4  0
  9 20  1  0
 10 19  4  0
 11 25  4  0
 13 14  4  0
 15 16  4  0
 15 17  4  0
 15 21  4  0
 16 24  1  0
 16 25  4  0
 20 24  1  0
 20 26  2  0
 21 23  4  0
 22 23  1  0
M  END
$$$$

 Created by Python create_sdf_string function

 26 28  0  0  0  0  0  0  0  0999 V2000
   12.4616    8.6700   19.4180 N   0  0  0  0  0  0  0  0  0  0  0  0
   11.8329   10.8148   18.6769 N   0  0  0  0  0  0  0  0  0  0  0  0
    6.1021    2.5564   21.0678 C   0  0  0  0  0  0  0  0  0  0  0  0
   10.9097   11.8051   18.4804 C   0  0  0  0  0  0  0  0  0  0  0  0
   11.2280   12.9135   17.5669 C   0  0  0  0  0  0  0  0  0  0  0  0
   12.3782    5.4231   20.7777 C   0  0  0  0  0  0  0  0  0  0  0  0
    7.7365    4.6508   21.6987 C   0  0  0  0  0  0  0  0  0  0  0  0
   13.0186   11.0102   18.0020 C   0  0  0  0  0  0  0  0  0  0  0  0
    8.6628    5.7088   21.8871 N   0  0  0  0  0  0  0  0  0  0  0  0
    5.6516    3.5258   21.9140 C   0  0  0  0  0  0  0  0  0  0  0  0
   11.5863    9.6815   19.4539 C   0  0  0  0  0  0  0  0  0  0  0  0
   12.9648    4.1543   20.9205 C   0  0  0  0  0  0  0  0  0  0  0  0
    8.2089    3.6265   20.8929 C   0  0  0  0  0  0  0  0  0  0  0  0
    7.3827    2.5724   20.5432 C   0  0  0  0  0  0  0  0  0  0  0  0
   11.1529    7.2750   20.8025 C   0  0  0  0  0  0  0  0  0  0  0  0
   10.2573    8.3215   20.9827 C   0  0  0  0  0  0  0  0  0  0  0  0
   11.1606    5.9378   21.2366 N   0  0  0  0  0  0  0  0  0  0  0  0
    9.8932   11.6736   19.0677 O   0  0  0  0  0  0  0  0  0  0  0  0
    6.4470    4.5850   22.2321 C   0  0  0  0  0  0  0  0  0  0  0  0
    8.4619    6.9895   22.2968 C   0  0  0  0  0  0  0  0  0  0  0  0
   12.2747    7.5102   20.0420 C   0  0  0  0  0  0  0  0  0  0  0  0
   14.2544    6.2142   19.4191 C   0  0  0  0  0  0  0  0  0  0  0  0
   13.0695    6.3705   20.0375 N   0  0  0  0  0  0  0  0  0  0  0  0
    9.1913    8.0876   21.8361 N   0  0  0  0  0  0  0  0  0  0  0  0
   10.4739    9.4813   20.2889 C   0  0  0  0  0  0  0  0  0  0  0  0
    7.5551    7.1270   23.1200 O   0  0  0  0  0  0  0  0  0  0  0  0
  1 11  4  0
  1 21  4  0
  2  4  1  0
  2  8  1  0
  2 11  1  0
  3 10  4  0
  3 14  4  0
  4  5  1  0
  4 18  2  0
  6 12  1  0
  6 17  4  0
  6 23  4  0
  7  9  1  0
  7 13  4  0
  7 19  4  0
  9 20  1  0
 10 19  4  0
 11 25  4  0
 13 14  4  0
 15 16  4  0
 15 17  4  0
 15 21  4  0
 16 24  1  0
 16 25  4  0
 20 24  1  0
 20 26  2  0
 21 23  4  0
 22 23  1  0
M  END
$$$$

 Created by Python create_sdf_string function

 26 28  0  0  0  0  0  0  0  0999 V2000
   12.4616    8.6700   19.4180 N   0  0  0  0  0  0  0  0  0  0  0  0
   11.8329   10.8148   18.6769 N   0  0  0  0  0  0  0  0  0  0  0  0
    6.1021    2.5564   21.0678 C   0  0  0  0  0  0  0  0  0  0  0  0
   10.9097   11.8051   18.4804 C   0  0  0  0  0  0  0  0  0  0  0  0
   11.2280   12.9135   17.5669 C   0  0  0  0  0  0  0  0  0  0  0  0
   12.3782    5.4231   20.7777 C   0  0  0  0  0  0  0  0  0  0  0  0
    7.7365    4.6508   21.6987 C   0  0  0  0  0  0  0  0  0  0  0  0
   13.0186   11.0102   18.0020 C   0  0  0  0  0  0  0  0  0  0  0  0
    8.6628    5.7088   21.8871 N   0  0  0  0  0  0  0  0  0  0  0  0
    5.6516    3.5258   21.9140 C   0  0  0  0  0  0  0  0  0  0  0  0
   11.5863    9.6815   19.4539 C   0  0  0  0  0  0  0  0  0  0  0  0
   12.9648    4.1543   20.9205 C   0  0  0  0  0  0  0  0  0  0  0  0
    8.2089    3.6265   20.8929 C   0  0  0  0  0  0  0  0  0  0  0  0
    7.3827    2.5724   20.5432 C   0  0  0  0  0  0  0  0  0  0  0  0
   11.1529    7.2750   20.8025 C   0  0  0  0  0  0  0  0  0  0  0  0
   10.2573    8.3215   20.9827 C   0  0  0  0  0  0  0  0  0  0  0  0
   11.1606    5.9378   21.2366 N   0  0  0  0  0  0  0  0  0  0  0  0
    9.8932   11.6736   19.0677 O   0  0  0  0  0  0  0  0  0  0  0  0
    6.4470    4.5850   22.2321 C   0  0  0  0  0  0  0  0  0  0  0  0
    8.4619    6.9895   22.2968 C   0  0  0  0  0  0  0  0  0  0  0  0
   12.2747    7.5102   20.0420 C   0  0  0  0  0  0  0  0  0  0  0  0
   14.2544    6.2142   19.4191 C   0  0  0  0  0  0  0  0  0  0  0  0
   13.0695    6.3705   20.0375 N   0  0  0  0  0  0  0  0  0  0  0  0
    9.1913    8.0876   21.8361 N   0  0  0  0  0  0  0  0  0  0  0  0
   10.4739    9.4813   20.2889 C   0  0  0  0  0  0  0  0  0  0  0  0
    7.5551    7.1270   23.1200 O   0  0  0  0  0  0  0  0  0  0  0  0
  1 11  4  0
  1 21  4  0
  2  4  1  0
  2  8  1  0
  2 11  1  0
  3 10  4  0
  3 14  4  0
  4  5  1  0
  4 18  2  0
  6 12  1  0
  6 17  4  0
  6 23  4  0
  7  9  1  0
  7 13  4  0
  7 19  4  0
  9 20  1  0
 10 19  4  0
 11 25  4  0
 13 14  4  0
 15 16  4  0
 15 17  4  0
 15 21  4  0
 16 24  1  0
 16 25  4  0
 20 24  1  0
 20 26  2  0
 21 23  4  0
 22 23  1  0
M  END
$$$$

 Created by Python create_sdf_string function

 26 28  0  0  0  0  0  0  0  0999 V2000
   12.4616    8.6700   19.4180 N   0  0  0  0  0  0  0  0  0  0  0  0
   11.8329   10.8148   18.6769 N   0  0  0  0  0  0  0  0  0  0  0  0
    6.1021    2.5564   21.0678 C   0  0  0  0  0  0  0  0  0  0  0  0
   10.9097   11.8051   18.4804 C   0  0  0  0  0  0  0  0  0  0  0  0
   11.2280   12.9135   17.5669 C   0  0  0  0  0  0  0  0  0  0  0  0
   12.3782    5.4231   20.7777 C   0  0  0  0  0  0  0  0  0  0  0  0
    7.7365    4.6508   21.6987 C   0  0  0  0  0  0  0  0  0  0  0  0
   13.0186   11.0102   18.0020 C   0  0  0  0  0  0  0  0  0  0  0  0
    8.6628    5.7088   21.8871 N   0  0  0  0  0  0  0  0  0  0  0  0
    5.6516    3.5258   21.9140 C   0  0  0  0  0  0  0  0  0  0  0  0
   11.5863    9.6815   19.4539 C   0  0  0  0  0  0  0  0  0  0  0  0
   12.9648    4.1543   20.9205 C   0  0  0  0  0  0  0  0  0  0  0  0
    8.2089    3.6265   20.8929 C   0  0  0  0  0  0  0  0  0  0  0  0
    7.3827    2.5724   20.5432 C   0  0  0  0  0  0  0  0  0  0  0  0
   11.1529    7.2750   20.8025 C   0  0  0  0  0  0  0  0  0  0  0  0
   10.2573    8.3215   20.9827 C   0  0  0  0  0  0  0  0  0  0  0  0
   11.1606    5.9378   21.2366 N   0  0  0  0  0  0  0  0  0  0  0  0
    9.8932   11.6736   19.0677 O   0  0  0  0  0  0  0  0  0  0  0  0
    6.4470    4.5850   22.2321 C   0  0  0  0  0  0  0  0  0  0  0  0
    8.4619    6.9895   22.2968 C   0  0  0  0  0  0  0  0  0  0  0  0
   12.2747    7.5102   20.0420 C   0  0  0  0  0  0  0  0  0  0  0  0
   14.2544    6.2142   19.4191 C   0  0  0  0  0  0  0  0  0  0  0  0
   13.0695    6.3705   20.0375 N   0  0  0  0  0  0  0  0  0  0  0  0
    9.1913    8.0876   21.8361 N   0  0  0  0  0  0  0  0  0  0  0  0
   10.4739    9.4813   20.2889 C   0  0  0  0  0  0  0  0  0  0  0  0
    7.5551    7.1270   23.1200 O   0  0  0  0  0  0  0  0  0  0  0  0
  1 11  4  0
  1 21  4  0
  2  4  1  0
  2  8  1  0
  2 11  1  0
  3 10  4  0
  3 14  4  0
  4  5  1  0
  4 18  2  0
  6 12  1  0
  6 17  4  0
  6 23  4  0
  7  9  1  0
  7 13  4  0
  7 19  4  0
  9 20  1  0
 10 19  4  0
 11 25  4  0
 13 14  4  0
 15 16  4  0
 15 17  4  0
 15 21  4  0
 16 24  1  0
 16 25  4  0
 20 24  1  0
 20 26  2  0
 21 23  4  0
 22 23  1  0
M  END
$$$$

 Created by Python create_sdf_string function

 26 28  0  0  0  0  0  0  0  0999 V2000
   12.4616    8.6700   19.4180 N   0  0  0  0  0  0  0  0  0  0  0  0
   11.8329   10.8148   18.6769 N   0  0  0  0  0  0  0  0  0  0  0  0
    6.1021    2.5564   21.0678 C   0  0  0  0  0  0  0  0  0  0  0  0
   10.9097   11.8051   18.4804 C   0  0  0  0  0  0  0  0  0  0  0  0
   11.2280   12.9135   17.5669 C   0  0  0  0  0  0  0  0  0  0  0  0
   12.3782    5.4231   20.7777 C   0  0  0  0  0  0  0  0  0  0  0  0
    7.7365    4.6508   21.6987 C   0  0  0  0  0  0  0  0  0  0  0  0
   13.0186   11.0102   18.0020 C   0  0  0  0  0  0  0  0  0  0  0  0
    8.6628    5.7088   21.8871 N   0  0  0  0  0  0  0  0  0  0  0  0
    5.6516    3.5258   21.9140 C   0  0  0  0  0  0  0  0  0  0  0  0
   11.5863    9.6815   19.4539 C   0  0  0  0  0  0  0  0  0  0  0  0
   12.9648    4.1543   20.9205 C   0  0  0  0  0  0  0  0  0  0  0  0
    8.2089    3.6265   20.8929 C   0  0  0  0  0  0  0  0  0  0  0  0
    7.3827    2.5724   20.5432 C   0  0  0  0  0  0  0  0  0  0  0  0
   11.1529    7.2750   20.8025 C   0  0  0  0  0  0  0  0  0  0  0  0
   10.2573    8.3215   20.9827 C   0  0  0  0  0  0  0  0  0  0  0  0
   11.1606    5.9378   21.2366 N   0  0  0  0  0  0  0  0  0  0  0  0
    9.8932   11.6736   19.0677 O   0  0  0  0  0  0  0  0  0  0  0  0
    6.4470    4.5850   22.2321 C   0  0  0  0  0  0  0  0  0  0  0  0
    8.4619    6.9895   22.2968 C   0  0  0  0  0  0  0  0  0  0  0  0
   12.2747    7.5102   20.0420 C   0  0  0  0  0  0  0  0  0  0  0  0
   14.2544    6.2142   19.4191 C   0  0  0  0  0  0  0  0  0  0  0  0
   13.0695    6.3705   20.0375 N   0  0  0  0  0  0  0  0  0  0  0  0
    9.1913    8.0876   21.8361 N   0  0  0  0  0  0  0  0  0  0  0  0
   10.4739    9.4813   20.2889 C   0  0  0  0  0  0  0  0  0  0  0  0
    7.5551    7.1270   23.1200 O   0  0  0  0  0  0  0  0  0  0  0  0
  1 11  4  0
  1 21  4  0
  2  4  1  0
  2  8  1  0
  2 11  1  0
  3 10  4  0
  3 14  4  0
  4  5  1  0
  4 18  2  0
  6 12  1  0
  6 17  4  0
  6 23  4  0
  7  9  1  0
  7 13  4  0
  7 19  4  0
  9 20  1  0
 10 19  4  0
 11 25  4  0
 13 14  4  0
 15 16  4  0
 15 17  4  0
 15 21  4  0
 16 24  1  0
 16 25  4  0
 20 24  1  0
 20 26  2  0
 21 23  4  0
 22 23  1  0
M  END
$$$$

 Created by Python create_sdf_string function

 26 28  0  0  0  0  0  0  0  0999 V2000
   12.4616    8.6700   19.4180 N   0  0  0  0  0  0  0  0  0  0  0  0
   11.8329   10.8148   18.6769 N   0  0  0  0  0  0  0  0  0  0  0  0
    6.1021    2.5564   21.0678 C   0  0  0  0  0  0  0  0  0  0  0  0
   10.9097   11.8051   18.4804 C   0  0  0  0  0  0  0  0  0  0  0  0
   11.2280   12.9135   17.5669 C   0  0  0  0  0  0  0  0  0  0  0  0
   12.3782    5.4231   20.7777 C   0  0  0  0  0  0  0  0  0  0  0  0
    7.7365    4.6508   21.6987 C   0  0  0  0  0  0  0  0  0  0  0  0
   13.0186   11.0102   18.0020 C   0  0  0  0  0  0  0  0  0  0  0  0
    8.6628    5.7088   21.8871 N   0  0  0  0  0  0  0  0  0  0  0  0
    5.6516    3.5258   21.9140 C   0  0  0  0  0  0  0  0  0  0  0  0
   11.5863    9.6815   19.4539 C   0  0  0  0  0  0  0  0  0  0  0  0
   12.9648    4.1543   20.9205 C   0  0  0  0  0  0  0  0  0  0  0  0
    8.2089    3.6265   20.8929 C   0  0  0  0  0  0  0  0  0  0  0  0
    7.3827    2.5724   20.5432 C   0  0  0  0  0  0  0  0  0  0  0  0
   11.1529    7.2750   20.8025 C   0  0  0  0  0  0  0  0  0  0  0  0
   10.2573    8.3215   20.9827 C   0  0  0  0  0  0  0  0  0  0  0  0
   11.1606    5.9378   21.2366 N   0  0  0  0  0  0  0  0  0  0  0  0
    9.8932   11.6736   19.0677 O   0  0  0  0  0  0  0  0  0  0  0  0
    6.4470    4.5850   22.2321 C   0  0  0  0  0  0  0  0  0  0  0  0
    8.4619    6.9895   22.2968 C   0  0  0  0  0  0  0  0  0  0  0  0
   12.2747    7.5102   20.0420 C   0  0  0  0  0  0  0  0  0  0  0  0
   14.2544    6.2142   19.4191 C   0  0  0  0  0  0  0  0  0  0  0  0
   13.0695    6.3705   20.0375 N   0  0  0  0  0  0  0  0  0  0  0  0
    9.1913    8.0876   21.8361 N   0  0  0  0  0  0  0  0  0  0  0  0
   10.4739    9.4813   20.2889 C   0  0  0  0  0  0  0  0  0  0  0  0
    7.5551    7.1270   23.1200 O   0  0  0  0  0  0  0  0  0  0  0  0
  1 11  4  0
  1 21  4  0
  2  4  1  0
  2  8  1  0
  2 11  1  0
  3 10  4  0
  3 14  4  0
  4  5  1  0
  4 18  2  0
  6 12  1  0
  6 17  4  0
  6 23  4  0
  7  9  1  0
  7 13  4  0
  7 19  4  0
  9 20  1  0
 10 19  4  0
 11 25  4  0
 13 14  4  0
 15 16  4  0
 15 17  4  0
 15 21  4  0
 16 24  1  0
 16 25  4  0
 20 24  1  0
 20 26  2  0
 21 23  4  0
 22 23  1  0
M  END
$$$$

 Created by Python create_sdf_string function

 26 28  0  0  0  0  0  0  0  0999 V2000
   12.4616    8.6700   19.4180 N   0  0  0  0  0  0  0  0  0  0  0  0
   11.8329   10.8148   18.6769 N   0  0  0  0  0  0  0  0  0  0  0  0
    6.1021    2.5564   21.0678 C   0  0  0  0  0  0  0  0  0  0  0  0
   10.9097   11.8051   18.4804 C   0  0  0  0  0  0  0  0  0  0  0  0
   11.2280   12.9135   17.5669 C   0  0  0  0  0  0  0  0  0  0  0  0
   12.3782    5.4231   20.7777 C   0  0  0  0  0  0  0  0  0  0  0  0
    7.7365    4.6508   21.6987 C   0  0  0  0  0  0  0  0  0  0  0  0
   13.0186   11.0102   18.0020 C   0  0  0  0  0  0  0  0  0  0  0  0
    8.6628    5.7088   21.8871 N   0  0  0  0  0  0  0  0  0  0  0  0
    5.6516    3.5258   21.9140 C   0  0  0  0  0  0  0  0  0  0  0  0
   11.5863    9.6815   19.4539 C   0  0  0  0  0  0  0  0  0  0  0  0
   12.9648    4.1543   20.9205 C   0  0  0  0  0  0  0  0  0  0  0  0
    8.2089    3.6265   20.8929 C   0  0  0  0  0  0  0  0  0  0  0  0
    7.3827    2.5724   20.5432 C   0  0  0  0  0  0  0  0  0  0  0  0
   11.1529    7.2750   20.8025 C   0  0  0  0  0  0  0  0  0  0  0  0
   10.2573    8.3215   20.9827 C   0  0  0  0  0  0  0  0  0  0  0  0
   11.1606    5.9378   21.2366 N   0  0  0  0  0  0  0  0  0  0  0  0
    9.8932   11.6736   19.0677 O   0  0  0  0  0  0  0  0  0  0  0  0
    6.4470    4.5850   22.2321 C   0  0  0  0  0  0  0  0  0  0  0  0
    8.4619    6.9895   22.2968 C   0  0  0  0  0  0  0  0  0  0  0  0
   12.2747    7.5102   20.0420 C   0  0  0  0  0  0  0  0  0  0  0  0
   14.2544    6.2142   19.4191 C   0  0  0  0  0  0  0  0  0  0  0  0
   13.0695    6.3705   20.0375 N   0  0  0  0  0  0  0  0  0  0  0  0
    9.1913    8.0876   21.8361 N   0  0  0  0  0  0  0  0  0  0  0  0
   10.4739    9.4813   20.2889 C   0  0  0  0  0  0  0  0  0  0  0  0
    7.5551    7.1270   23.1200 O   0  0  0  0  0  0  0  0  0  0  0  0
  1 11  4  0
  1 21  4  0
  2  4  1  0
  2  8  1  0
  2 11  1  0
  3 10  4  0
  3 14  4  0
  4  5  1  0
  4 18  2  0
  6 12  1  0
  6 17  4  0
  6 23  4  0
  7  9  1  0
  7 13  4  0
  7 19  4  0
  9 20  1  0
 10 19  4  0
 11 25  4  0
 13 14  4  0
 15 16  4  0
 15 17  4  0
 15 21  4  0
 16 24  1  0
 16 25  4  0
 20 24  1  0
 20 26  2  0
 21 23  4  0
 22 23  1  0
M  END
$$$$

 Created by Python create_sdf_string function

 26 28  0  0  0  0  0  0  0  0999 V2000
   12.4616    8.6700   19.4180 N   0  0  0  0  0  0  0  0  0  0  0  0
   11.8329   10.8148   18.6769 N   0  0  0  0  0  0  0  0  0  0  0  0
    6.1021    2.5564   21.0678 C   0  0  0  0  0  0  0  0  0  0  0  0
   10.9097   11.8051   18.4804 C   0  0  0  0  0  0  0  0  0  0  0  0
   11.2280   12.9135   17.5669 C   0  0  0  0  0  0  0  0  0  0  0  0
   12.3782    5.4231   20.7777 C   0  0  0  0  0  0  0  0  0  0  0  0
    7.7365    4.6508   21.6987 C   0  0  0  0  0  0  0  0  0  0  0  0
   13.0186   11.0102   18.0020 C   0  0  0  0  0  0  0  0  0  0  0  0
    8.6628    5.7088   21.8871 N   0  0  0  0  0  0  0  0  0  0  0  0
    5.6516    3.5258   21.9140 C   0  0  0  0  0  0  0  0  0  0  0  0
   11.5863    9.6815   19.4539 C   0  0  0  0  0  0  0  0  0  0  0  0
   12.9648    4.1543   20.9205 C   0  0  0  0  0  0  0  0  0  0  0  0
    8.2089    3.6265   20.8929 C   0  0  0  0  0  0  0  0  0  0  0  0
    7.3827    2.5724   20.5432 C   0  0  0  0  0  0  0  0  0  0  0  0
   11.1529    7.2750   20.8025 C   0  0  0  0  0  0  0  0  0  0  0  0
   10.2573    8.3215   20.9827 C   0  0  0  0  0  0  0  0  0  0  0  0
   11.1606    5.9378   21.2366 N   0  0  0  0  0  0  0  0  0  0  0  0
    9.8932   11.6736   19.0677 O   0  0  0  0  0  0  0  0  0  0  0  0
    6.4470    4.5850   22.2321 C   0  0  0  0  0  0  0  0  0  0  0  0
    8.4619    6.9895   22.2968 C   0  0  0  0  0  0  0  0  0  0  0  0
   12.2747    7.5102   20.0420 C   0  0  0  0  0  0  0  0  0  0  0  0
   14.2544    6.2142   19.4191 C   0  0  0  0  0  0  0  0  0  0  0  0
   13.0695    6.3705   20.0375 N   0  0  0  0  0  0  0  0  0  0  0  0
    9.1913    8.0876   21.8361 N   0  0  0  0  0  0  0  0  0  0  0  0
   10.4739    9.4813   20.2889 C   0  0  0  0  0  0  0  0  0  0  0  0
    7.5551    7.1270   23.1200 O   0  0  0  0  0  0  0  0  0  0  0  0
  1 11  4  0
  1 21  4  0
  2  4  1  0
  2  8  1  0
  2 11  1  0
  3 10  4  0
  3 14  4  0
  4  5  1  0
  4 18  2  0
  6 12  1  0
  6 17  4  0
  6 23  4  0
  7  9  1  0
  7 13  4  0
  7 19  4  0
  9 20  1  0
 10 19  4  0
 11 25  4  0
 13 14  4  0
 15 16  4  0
 15 17  4  0
 15 21  4  0
 16 24  1  0
 16 25  4  0
 20 24  1  0
 20 26  2  0
 21 23  4  0
 22 23  1  0
M  END
$$$$

 Created by Python create_sdf_string function

 26 28  0  0  0  0  0  0  0  0999 V2000
   12.4616    8.6700   19.4180 N   0  0  0  0  0  0  0  0  0  0  0  0
   11.8329   10.8148   18.6769 N   0  0  0  0  0  0  0  0  0  0  0  0
    6.1021    2.5564   21.0678 C   0  0  0  0  0  0  0  0  0  0  0  0
   10.9097   11.8051   18.4804 C   0  0  0  0  0  0  0  0  0  0  0  0
   11.2280   12.9135   17.5669 C   0  0  0  0  0  0  0  0  0  0  0  0
   12.3782    5.4231   20.7777 C   0  0  0  0  0  0  0  0  0  0  0  0
    7.7365    4.6508   21.6987 C   0  0  0  0  0  0  0  0  0  0  0  0
   13.0186   11.0102   18.0020 C   0  0  0  0  0  0  0  0  0  0  0  0
    8.6628    5.7088   21.8871 N   0  0  0  0  0  0  0  0  0  0  0  0
    5.6516    3.5258   21.9140 C   0  0  0  0  0  0  0  0  0  0  0  0
   11.5863    9.6815   19.4539 C   0  0  0  0  0  0  0  0  0  0  0  0
   12.9648    4.1543   20.9205 C   0  0  0  0  0  0  0  0  0  0  0  0
    8.2089    3.6265   20.8929 C   0  0  0  0  0  0  0  0  0  0  0  0
    7.3827    2.5724   20.5432 C   0  0  0  0  0  0  0  0  0  0  0  0
   11.1529    7.2750   20.8025 C   0  0  0  0  0  0  0  0  0  0  0  0
   10.2573    8.3215   20.9827 C   0  0  0  0  0  0  0  0  0  0  0  0
   11.1606    5.9378   21.2366 N   0  0  0  0  0  0  0  0  0  0  0  0
    9.8932   11.6736   19.0677 O   0  0  0  0  0  0  0  0  0  0  0  0
    6.4470    4.5850   22.2321 C   0  0  0  0  0  0  0  0  0  0  0  0
    8.4619    6.9895   22.2968 C   0  0  0  0  0  0  0  0  0  0  0  0
   12.2747    7.5102   20.0420 C   0  0  0  0  0  0  0  0  0  0  0  0
   14.2544    6.2142   19.4191 C   0  0  0  0  0  0  0  0  0  0  0  0
   13.0695    6.3705   20.0375 N   0  0  0  0  0  0  0  0  0  0  0  0
    9.1913    8.0876   21.8361 N   0  0  0  0  0  0  0  0  0  0  0  0
   10.4739    9.4813   20.2889 C   0  0  0  0  0  0  0  0  0  0  0  0
    7.5551    7.1270   23.1200 O   0  0  0  0  0  0  0  0  0  0  0  0
  1 11  4  0
  1 21  4  0
  2  4  1  0
  2  8  1  0
  2 11  1  0
  3 10  4  0
  3 14  4  0
  4  5  1  0
  4 18  2  0
  6 12  1  0
  6 17  4  0
  6 23  4  0
  7  9  1  0
  7 13  4  0
  7 19  4  0
  9 20  1  0
 10 19  4  0
 11 25  4  0
 13 14  4  0
 15 16  4  0
 15 17  4  0
 15 21  4  0
 16 24  1  0
 16 25  4  0
 20 24  1  0
 20 26  2  0
 21 23  4  0
 22 23  1  0
M  END
$$$$

 Created by Python create_sdf_string function

 26 28  0  0  0  0  0  0  0  0999 V2000
   12.4616    8.6700   19.4180 N   0  0  0  0  0  0  0  0  0  0  0  0
   11.8329   10.8148   18.6769 N   0  0  0  0  0  0  0  0  0  0  0  0
    6.1021    2.5564   21.0678 C   0  0  0  0  0  0  0  0  0  0  0  0
   10.9097   11.8051   18.4804 C   0  0  0  0  0  0  0  0  0  0  0  0
   11.2280   12.9135   17.5669 C   0  0  0  0  0  0  0  0  0  0  0  0
   12.3782    5.4231   20.7777 C   0  0  0  0  0  0  0  0  0  0  0  0
    7.7365    4.6508   21.6987 C   0  0  0  0  0  0  0  0  0  0  0  0
   13.0186   11.0102   18.0020 C   0  0  0  0  0  0  0  0  0  0  0  0
    8.6628    5.7088   21.8871 N   0  0  0  0  0  0  0  0  0  0  0  0
    5.6516    3.5258   21.9140 C   0  0  0  0  0  0  0  0  0  0  0  0
   11.5863    9.6815   19.4539 C   0  0  0  0  0  0  0  0  0  0  0  0
   12.9648    4.1543   20.9205 C   0  0  0  0  0  0  0  0  0  0  0  0
    8.2089    3.6265   20.8929 C   0  0  0  0  0  0  0  0  0  0  0  0
    7.3827    2.5724   20.5432 C   0  0  0  0  0  0  0  0  0  0  0  0
   11.1529    7.2750   20.8025 C   0  0  0  0  0  0  0  0  0  0  0  0
   10.2573    8.3215   20.9827 C   0  0  0  0  0  0  0  0  0  0  0  0
   11.1606    5.9378   21.2366 N   0  0  0  0  0  0  0  0  0  0  0  0
    9.8932   11.6736   19.0677 O   0  0  0  0  0  0  0  0  0  0  0  0
    6.4470    4.5850   22.2321 C   0  0  0  0  0  0  0  0  0  0  0  0
    8.4619    6.9895   22.2968 C   0  0  0  0  0  0  0  0  0  0  0  0
   12.2747    7.5102   20.0420 C   0  0  0  0  0  0  0  0  0  0  0  0
   14.2544    6.2142   19.4191 C   0  0  0  0  0  0  0  0  0  0  0  0
   13.0695    6.3705   20.0375 N   0  0  0  0  0  0  0  0  0  0  0  0
    9.1913    8.0876   21.8361 N   0  0  0  0  0  0  0  0  0  0  0  0
   10.4739    9.4813   20.2889 C   0  0  0  0  0  0  0  0  0  0  0  0
    7.5551    7.1270   23.1200 O   0  0  0  0  0  0  0  0  0  0  0  0
  1 11  4  0
  1 21  4  0
  2  4  1  0
  2  8  1  0
  2 11  1  0
  3 10  4  0
  3 14  4  0
  4  5  1  0
  4 18  2  0
  6 12  1  0
  6 17  4  0
  6 23  4  0
  7  9  1  0
  7 13  4  0
  7 19  4  0
  9 20  1  0
 10 19  4  0
 11 25  4  0
 13 14  4  0
 15 16  4  0
 15 17  4  0
 15 21  4  0
 16 24  1  0
 16 25  4  0
 20 24  1  0
 20 26  2  0
 21 23  4  0
 22 23  1  0
M  END
$$$$

 Created by Python create_sdf_string function

 26 28  0  0  0  0  0  0  0  0999 V2000
   12.4616    8.6700   19.4180 N   0  0  0  0  0  0  0  0  0  0  0  0
   11.8329   10.8148   18.6769 N   0  0  0  0  0  0  0  0  0  0  0  0
    6.1021    2.5564   21.0678 C   0  0  0  0  0  0  0  0  0  0  0  0
   10.9097   11.8051   18.4804 C   0  0  0  0  0  0  0  0  0  0  0  0
   11.2280   12.9135   17.5669 C   0  0  0  0  0  0  0  0  0  0  0  0
   12.3782    5.4231   20.7777 C   0  0  0  0  0  0  0  0  0  0  0  0
    7.7365    4.6508   21.6987 C   0  0  0  0  0  0  0  0  0  0  0  0
   13.0186   11.0102   18.0020 C   0  0  0  0  0  0  0  0  0  0  0  0
    8.6628    5.7088   21.8871 N   0  0  0  0  0  0  0  0  0  0  0  0
    5.6516    3.5258   21.9140 C   0  0  0  0  0  0  0  0  0  0  0  0
   11.5863    9.6815   19.4539 C   0  0  0  0  0  0  0  0  0  0  0  0
   12.9648    4.1543   20.9205 C   0  0  0  0  0  0  0  0  0  0  0  0
    8.2089    3.6265   20.8929 C   0  0  0  0  0  0  0  0  0  0  0  0
    7.3827    2.5724   20.5432 C   0  0  0  0  0  0  0  0  0  0  0  0
   11.1529    7.2750   20.8025 C   0  0  0  0  0  0  0  0  0  0  0  0
   10.2573    8.3215   20.9827 C   0  0  0  0  0  0  0  0  0  0  0  0
   11.1606    5.9378   21.2366 N   0  0  0  0  0  0  0  0  0  0  0  0
    9.8932   11.6736   19.0677 O   0  0  0  0  0  0  0  0  0  0  0  0
    6.4470    4.5850   22.2321 C   0  0  0  0  0  0  0  0  0  0  0  0
    8.4619    6.9895   22.2968 C   0  0  0  0  0  0  0  0  0  0  0  0
   12.2747    7.5102   20.0420 C   0  0  0  0  0  0  0  0  0  0  0  0
   14.2544    6.2142   19.4191 C   0  0  0  0  0  0  0  0  0  0  0  0
   13.0695    6.3705   20.0375 N   0  0  0  0  0  0  0  0  0  0  0  0
    9.1913    8.0876   21.8361 N   0  0  0  0  0  0  0  0  0  0  0  0
   10.4739    9.4813   20.2889 C   0  0  0  0  0  0  0  0  0  0  0  0
    7.5551    7.1270   23.1200 O   0  0  0  0  0  0  0  0  0  0  0  0
  1 11  4  0
  1 21  4  0
  2  4  1  0
  2  8  1  0
  2 11  1  0
  3 10  4  0
  3 14  4  0
  4  5  1  0
  4 18  2  0
  6 12  1  0
  6 17  4  0
  6 23  4  0
  7  9  1  0
  7 13  4  0
  7 19  4  0
  9 20  1  0
 10 19  4  0
 11 25  4  0
 13 14  4  0
 15 16  4  0
 15 17  4  0
 15 21  4  0
 16 24  1  0
 16 25  4  0
 20 24  1  0
 20 26  2  0
 21 23  4  0
 22 23  1  0
M  END
$$$$

 Created by Python create_sdf_string function

 26 28  0  0  0  0  0  0  0  0999 V2000
   12.4616    8.6700   19.4180 N   0  0  0  0  0  0  0  0  0  0  0  0
   11.8329   10.8148   18.6769 N   0  0  0  0  0  0  0  0  0  0  0  0
    6.1021    2.5564   21.0678 C   0  0  0  0  0  0  0  0  0  0  0  0
   10.9097   11.8051   18.4804 C   0  0  0  0  0  0  0  0  0  0  0  0
   11.2280   12.9135   17.5669 C   0  0  0  0  0  0  0  0  0  0  0  0
   12.3782    5.4231   20.7777 C   0  0  0  0  0  0  0  0  0  0  0  0
    7.7365    4.6508   21.6987 C   0  0  0  0  0  0  0  0  0  0  0  0
   13.0186   11.0102   18.0020 C   0  0  0  0  0  0  0  0  0  0  0  0
    8.6628    5.7088   21.8871 N   0  0  0  0  0  0  0  0  0  0  0  0
    5.6516    3.5258   21.9140 C   0  0  0  0  0  0  0  0  0  0  0  0
   11.5863    9.6815   19.4539 C   0  0  0  0  0  0  0  0  0  0  0  0
   12.9648    4.1543   20.9205 C   0  0  0  0  0  0  0  0  0  0  0  0
    8.2089    3.6265   20.8929 C   0  0  0  0  0  0  0  0  0  0  0  0
    7.3827    2.5724   20.5432 C   0  0  0  0  0  0  0  0  0  0  0  0
   11.1529    7.2750   20.8025 C   0  0  0  0  0  0  0  0  0  0  0  0
   10.2573    8.3215   20.9827 C   0  0  0  0  0  0  0  0  0  0  0  0
   11.1606    5.9378   21.2366 N   0  0  0  0  0  0  0  0  0  0  0  0
    9.8932   11.6736   19.0677 O   0  0  0  0  0  0  0  0  0  0  0  0
    6.4470    4.5850   22.2321 C   0  0  0  0  0  0  0  0  0  0  0  0
    8.4619    6.9895   22.2968 C   0  0  0  0  0  0  0  0  0  0  0  0
   12.2747    7.5102   20.0420 C   0  0  0  0  0  0  0  0  0  0  0  0
   14.2544    6.2142   19.4191 C   0  0  0  0  0  0  0  0  0  0  0  0
   13.0695    6.3705   20.0375 N   0  0  0  0  0  0  0  0  0  0  0  0
    9.1913    8.0876   21.8361 N   0  0  0  0  0  0  0  0  0  0  0  0
   10.4739    9.4813   20.2889 C   0  0  0  0  0  0  0  0  0  0  0  0
    7.5551    7.1270   23.1200 O   0  0  0  0  0  0  0  0  0  0  0  0
  1 11  4  0
  1 21  4  0
  2  4  1  0
  2  8  1  0
  2 11  1  0
  3 10  4  0
  3 14  4  0
  4  5  1  0
  4 18  2  0
  6 12  1  0
  6 17  4  0
  6 23  4  0
  7  9  1  0
  7 13  4  0
  7 19  4  0
  9 20  1  0
 10 19  4  0
 11 25  4  0
 13 14  4  0
 15 16  4  0
 15 17  4  0
 15 21  4  0
 16 24  1  0
 16 25  4  0
 20 24  1  0
 20 26  2  0
 21 23  4  0
 22 23  1  0
M  END
$$$$

 Created by Python create_sdf_string function

 26 28  0  0  0  0  0  0  0  0999 V2000
   12.4616    8.6700   19.4180 N   0  0  0  0  0  0  0  0  0  0  0  0
   11.8329   10.8148   18.6769 N   0  0  0  0  0  0  0  0  0  0  0  0
    6.1021    2.5564   21.0678 C   0  0  0  0  0  0  0  0  0  0  0  0
   10.9097   11.8051   18.4804 C   0  0  0  0  0  0  0  0  0  0  0  0
   11.2280   12.9135   17.5669 C   0  0  0  0  0  0  0  0  0  0  0  0
   12.3782    5.4231   20.7777 C   0  0  0  0  0  0  0  0  0  0  0  0
    7.7365    4.6508   21.6987 C   0  0  0  0  0  0  0  0  0  0  0  0
   13.0186   11.0102   18.0020 C   0  0  0  0  0  0  0  0  0  0  0  0
    8.6628    5.7088   21.8871 N   0  0  0  0  0  0  0  0  0  0  0  0
    5.6516    3.5258   21.9140 C   0  0  0  0  0  0  0  0  0  0  0  0
   11.5863    9.6815   19.4539 C   0  0  0  0  0  0  0  0  0  0  0  0
   12.9648    4.1543   20.9205 C   0  0  0  0  0  0  0  0  0  0  0  0
    8.2089    3.6265   20.8929 C   0  0  0  0  0  0  0  0  0  0  0  0
    7.3827    2.5724   20.5432 C   0  0  0  0  0  0  0  0  0  0  0  0
   11.1529    7.2750   20.8025 C   0  0  0  0  0  0  0  0  0  0  0  0
   10.2573    8.3215   20.9827 C   0  0  0  0  0  0  0  0  0  0  0  0
   11.1606    5.9378   21.2366 N   0  0  0  0  0  0  0  0  0  0  0  0
    9.8932   11.6736   19.0677 O   0  0  0  0  0  0  0  0  0  0  0  0
    6.4470    4.5850   22.2321 C   0  0  0  0  0  0  0  0  0  0  0  0
    8.4619    6.9895   22.2968 C   0  0  0  0  0  0  0  0  0  0  0  0
   12.2747    7.5102   20.0420 C   0  0  0  0  0  0  0  0  0  0  0  0
   14.2544    6.2142   19.4191 C   0  0  0  0  0  0  0  0  0  0  0  0
   13.0695    6.3705   20.0375 N   0  0  0  0  0  0  0  0  0  0  0  0
    9.1913    8.0876   21.8361 N   0  0  0  0  0  0  0  0  0  0  0  0
   10.4739    9.4813   20.2889 C   0  0  0  0  0  0  0  0  0  0  0  0
    7.5551    7.1270   23.1200 O   0  0  0  0  0  0  0  0  0  0  0  0
  1 11  4  0
  1 21  4  0
  2  4  1  0
  2  8  1  0
  2 11  1  0
  3 10  4  0
  3 14  4  0
  4  5  1  0
  4 18  2  0
  6 12  1  0
  6 17  4  0
  6 23  4  0
  7  9  1  0
  7 13  4  0
  7 19  4  0
  9 20  1  0
 10 19  4  0
 11 25  4  0
 13 14  4  0
 15 16  4  0
 15 17  4  0
 15 21  4  0
 16 24  1  0
 16 25  4  0
 20 24  1  0
 20 26  2  0
 21 23  4  0
 22 23  1  0
M  END
$$$$

 Created by Python create_sdf_string function

 26 28  0  0  0  0  0  0  0  0999 V2000
   12.4616    8.6700   19.4180 N   0  0  0  0  0  0  0  0  0  0  0  0
   11.8329   10.8148   18.6769 N   0  0  0  0  0  0  0  0  0  0  0  0
    6.1021    2.5564   21.0678 C   0  0  0  0  0  0  0  0  0  0  0  0
   10.9097   11.8051   18.4804 C   0  0  0  0  0  0  0  0  0  0  0  0
   11.2280   12.9135   17.5669 C   0  0  0  0  0  0  0  0  0  0  0  0
   12.3782    5.4231   20.7777 C   0  0  0  0  0  0  0  0  0  0  0  0
    7.7365    4.6508   21.6987 C   0  0  0  0  0  0  0  0  0  0  0  0
   13.0186   11.0102   18.0020 C   0  0  0  0  0  0  0  0  0  0  0  0
    8.6628    5.7088   21.8871 N   0  0  0  0  0  0  0  0  0  0  0  0
    5.6516    3.5258   21.9140 C   0  0  0  0  0  0  0  0  0  0  0  0
   11.5863    9.6815   19.4539 C   0  0  0  0  0  0  0  0  0  0  0  0
   12.9648    4.1543   20.9205 C   0  0  0  0  0  0  0  0  0  0  0  0
    8.2089    3.6265   20.8929 C   0  0  0  0  0  0  0  0  0  0  0  0
    7.3827    2.5724   20.5432 C   0  0  0  0  0  0  0  0  0  0  0  0
   11.1529    7.2750   20.8025 C   0  0  0  0  0  0  0  0  0  0  0  0
   10.2573    8.3215   20.9827 C   0  0  0  0  0  0  0  0  0  0  0  0
   11.1606    5.9378   21.2366 N   0  0  0  0  0  0  0  0  0  0  0  0
    9.8932   11.6736   19.0677 O   0  0  0  0  0  0  0  0  0  0  0  0
    6.4470    4.5850   22.2321 C   0  0  0  0  0  0  0  0  0  0  0  0
    8.4619    6.9895   22.2968 C   0  0  0  0  0  0  0  0  0  0  0  0
   12.2747    7.5102   20.0420 C   0  0  0  0  0  0  0  0  0  0  0  0
   14.2544    6.2142   19.4191 C   0  0  0  0  0  0  0  0  0  0  0  0
   13.0695    6.3705   20.0375 N   0  0  0  0  0  0  0  0  0  0  0  0
    9.1913    8.0876   21.8361 N   0  0  0  0  0  0  0  0  0  0  0  0
   10.4739    9.4813   20.2889 C   0  0  0  0  0  0  0  0  0  0  0  0
    7.5551    7.1270   23.1200 O   0  0  0  0  0  0  0  0  0  0  0  0
  1 11  4  0
  1 21  4  0
  2  4  1  0
  2  8  1  0
  2 11  1  0
  3 10  4  0
  3 14  4  0
  4  5  1  0
  4 18  2  0
  6 12  1  0
  6 17  4  0
  6 23  4  0
  7  9  1  0
  7 13  4  0
  7 19  4  0
  9 20  1  0
 10 19  4  0
 11 25  4  0
 13 14  4  0
 15 16  4  0
 15 17  4  0
 15 21  4  0
 16 24  1  0
 16 25  4  0
 20 24  1  0
 20 26  2  0
 21 23  4  0
 22 23  1  0
M  END
$$$$

 Created by Python create_sdf_string function

 26 28  0  0  0  0  0  0  0  0999 V2000
   12.4616    8.6700   19.4180 N   0  0  0  0  0  0  0  0  0  0  0  0
   11.8329   10.8148   18.6769 N   0  0  0  0  0  0  0  0  0  0  0  0
    6.1021    2.5564   21.0678 C   0  0  0  0  0  0  0  0  0  0  0  0
   10.9097   11.8051   18.4804 C   0  0  0  0  0  0  0  0  0  0  0  0
   11.2280   12.9135   17.5669 C   0  0  0  0  0  0  0  0  0  0  0  0
   12.3782    5.4231   20.7777 C   0  0  0  0  0  0  0  0  0  0  0  0
    7.7365    4.6508   21.6987 C   0  0  0  0  0  0  0  0  0  0  0  0
   13.0186   11.0102   18.0020 C   0  0  0  0  0  0  0  0  0  0  0  0
    8.6628    5.7088   21.8871 N   0  0  0  0  0  0  0  0  0  0  0  0
    5.6516    3.5258   21.9140 C   0  0  0  0  0  0  0  0  0  0  0  0
   11.5863    9.6815   19.4539 C   0  0  0  0  0  0  0  0  0  0  0  0
   12.9648    4.1543   20.9205 C   0  0  0  0  0  0  0  0  0  0  0  0
    8.2089    3.6265   20.8929 C   0  0  0  0  0  0  0  0  0  0  0  0
    7.3827    2.5724   20.5432 C   0  0  0  0  0  0  0  0  0  0  0  0
   11.1529    7.2750   20.8025 C   0  0  0  0  0  0  0  0  0  0  0  0
   10.2573    8.3215   20.9827 C   0  0  0  0  0  0  0  0  0  0  0  0
   11.1606    5.9378   21.2366 N   0  0  0  0  0  0  0  0  0  0  0  0
    9.8932   11.6736   19.0677 O   0  0  0  0  0  0  0  0  0  0  0  0
    6.4470    4.5850   22.2321 C   0  0  0  0  0  0  0  0  0  0  0  0
    8.4619    6.9895   22.2968 C   0  0  0  0  0  0  0  0  0  0  0  0
   12.2747    7.5102   20.0420 C   0  0  0  0  0  0  0  0  0  0  0  0
   14.2544    6.2142   19.4191 C   0  0  0  0  0  0  0  0  0  0  0  0
   13.0695    6.3705   20.0375 N   0  0  0  0  0  0  0  0  0  0  0  0
    9.1913    8.0876   21.8361 N   0  0  0  0  0  0  0  0  0  0  0  0
   10.4739    9.4813   20.2889 C   0  0  0  0  0  0  0  0  0  0  0  0
    7.5551    7.1270   23.1200 O   0  0  0  0  0  0  0  0  0  0  0  0
  1 11  4  0
  1 21  4  0
  2  4  1  0
  2  8  1  0
  2 11  1  0
  3 10  4  0
  3 14  4  0
  4  5  1  0
  4 18  2  0
  6 12  1  0
  6 17  4  0
  6 23  4  0
  7  9  1  0
  7 13  4  0
  7 19  4  0
  9 20  1  0
 10 19  4  0
 11 25  4  0
 13 14  4  0
 15 16  4  0
 15 17  4  0
 15 21  4  0
 16 24  1  0
 16 25  4  0
 20 24  1  0
 20 26  2  0
 21 23  4  0
 22 23  1  0
M  END
$$$$

 Created by Python create_sdf_string function

 26 28  0  0  0  0  0  0  0  0999 V2000
   12.4616    8.6700   19.4180 N   0  0  0  0  0  0  0  0  0  0  0  0
   11.8329   10.8148   18.6769 N   0  0  0  0  0  0  0  0  0  0  0  0
    6.1021    2.5564   21.0678 C   0  0  0  0  0  0  0  0  0  0  0  0
   10.9097   11.8051   18.4804 C   0  0  0  0  0  0  0  0  0  0  0  0
   11.2280   12.9135   17.5669 C   0  0  0  0  0  0  0  0  0  0  0  0
   12.3782    5.4231   20.7777 C   0  0  0  0  0  0  0  0  0  0  0  0
    7.7365    4.6508   21.6987 C   0  0  0  0  0  0  0  0  0  0  0  0
   13.0186   11.0102   18.0020 C   0  0  0  0  0  0  0  0  0  0  0  0
    8.6628    5.7088   21.8871 N   0  0  0  0  0  0  0  0  0  0  0  0
    5.6516    3.5258   21.9140 C   0  0  0  0  0  0  0  0  0  0  0  0
   11.5863    9.6815   19.4539 C   0  0  0  0  0  0  0  0  0  0  0  0
   12.9648    4.1543   20.9205 C   0  0  0  0  0  0  0  0  0  0  0  0
    8.2089    3.6265   20.8929 C   0  0  0  0  0  0  0  0  0  0  0  0
    7.3827    2.5724   20.5432 C   0  0  0  0  0  0  0  0  0  0  0  0
   11.1529    7.2750   20.8025 C   0  0  0  0  0  0  0  0  0  0  0  0
   10.2573    8.3215   20.9827 C   0  0  0  0  0  0  0  0  0  0  0  0
   11.1606    5.9378   21.2366 N   0  0  0  0  0  0  0  0  0  0  0  0
    9.8932   11.6736   19.0677 O   0  0  0  0  0  0  0  0  0  0  0  0
    6.4470    4.5850   22.2321 C   0  0  0  0  0  0  0  0  0  0  0  0
    8.4619    6.9895   22.2968 C   0  0  0  0  0  0  0  0  0  0  0  0
   12.2747    7.5102   20.0420 C   0  0  0  0  0  0  0  0  0  0  0  0
   14.2544    6.2142   19.4191 C   0  0  0  0  0  0  0  0  0  0  0  0
   13.0695    6.3705   20.0375 N   0  0  0  0  0  0  0  0  0  0  0  0
    9.1913    8.0876   21.8361 N   0  0  0  0  0  0  0  0  0  0  0  0
   10.4739    9.4813   20.2889 C   0  0  0  0  0  0  0  0  0  0  0  0
    7.5551    7.1270   23.1200 O   0  0  0  0  0  0  0  0  0  0  0  0
  1 11  4  0
  1 21  4  0
  2  4  1  0
  2  8  1  0
  2 11  1  0
  3 10  4  0
  3 14  4  0
  4  5  1  0
  4 18  2  0
  6 12  1  0
  6 17  4  0
  6 23  4  0
  7  9  1  0
  7 13  4  0
  7 19  4  0
  9 20  1  0
 10 19  4  0
 11 25  4  0
 13 14  4  0
 15 16  4  0
 15 17  4  0
 15 21  4  0
 16 24  1  0
 16 25  4  0
 20 24  1  0
 20 26  2  0
 21 23  4  0
 22 23  1  0
M  END
$$$$

 Created by Python create_sdf_string function

 26 28  0  0  0  0  0  0  0  0999 V2000
   12.4616    8.6700   19.4180 N   0  0  0  0  0  0  0  0  0  0  0  0
   11.8329   10.8148   18.6769 N   0  0  0  0  0  0  0  0  0  0  0  0
    6.1021    2.5564   21.0678 C   0  0  0  0  0  0  0  0  0  0  0  0
   10.9097   11.8051   18.4804 C   0  0  0  0  0  0  0  0  0  0  0  0
   11.2280   12.9135   17.5669 C   0  0  0  0  0  0  0  0  0  0  0  0
   12.3782    5.4231   20.7777 C   0  0  0  0  0  0  0  0  0  0  0  0
    7.7365    4.6508   21.6987 C   0  0  0  0  0  0  0  0  0  0  0  0
   13.0186   11.0102   18.0020 C   0  0  0  0  0  0  0  0  0  0  0  0
    8.6628    5.7088   21.8871 N   0  0  0  0  0  0  0  0  0  0  0  0
    5.6516    3.5258   21.9140 C   0  0  0  0  0  0  0  0  0  0  0  0
   11.5863    9.6815   19.4539 C   0  0  0  0  0  0  0  0  0  0  0  0
   12.9648    4.1543   20.9205 C   0  0  0  0  0  0  0  0  0  0  0  0
    8.2089    3.6265   20.8929 C   0  0  0  0  0  0  0  0  0  0  0  0
    7.3827    2.5724   20.5432 C   0  0  0  0  0  0  0  0  0  0  0  0
   11.1529    7.2750   20.8025 C   0  0  0  0  0  0  0  0  0  0  0  0
   10.2573    8.3215   20.9827 C   0  0  0  0  0  0  0  0  0  0  0  0
   11.1606    5.9378   21.2366 N   0  0  0  0  0  0  0  0  0  0  0  0
    9.8932   11.6736   19.0677 O   0  0  0  0  0  0  0  0  0  0  0  0
    6.4470    4.5850   22.2321 C   0  0  0  0  0  0  0  0  0  0  0  0
    8.4619    6.9895   22.2968 C   0  0  0  0  0  0  0  0  0  0  0  0
   12.2747    7.5102   20.0420 C   0  0  0  0  0  0  0  0  0  0  0  0
   14.2544    6.2142   19.4191 C   0  0  0  0  0  0  0  0  0  0  0  0
   13.0695    6.3705   20.0375 N   0  0  0  0  0  0  0  0  0  0  0  0
    9.1913    8.0876   21.8361 N   0  0  0  0  0  0  0  0  0  0  0  0
   10.4739    9.4813   20.2889 C   0  0  0  0  0  0  0  0  0  0  0  0
    7.5551    7.1270   23.1200 O   0  0  0  0  0  0  0  0  0  0  0  0
  1 11  4  0
  1 21  4  0
  2  4  1  0
  2  8  1  0
  2 11  1  0
  3 10  4  0
  3 14  4  0
  4  5  1  0
  4 18  2  0
  6 12  1  0
  6 17  4  0
  6 23  4  0
  7  9  1  0
  7 13  4  0
  7 19  4  0
  9 20  1  0
 10 19  4  0
 11 25  4  0
 13 14  4  0
 15 16  4  0
 15 17  4  0
 15 21  4  0
 16 24  1  0
 16 25  4  0
 20 24  1  0
 20 26  2  0
 21 23  4  0
 22 23  1  0
M  END
$$$$

 Created by Python create_sdf_string function

 26 28  0  0  0  0  0  0  0  0999 V2000
   12.4616    8.6700   19.4180 N   0  0  0  0  0  0  0  0  0  0  0  0
   11.8329   10.8148   18.6769 N   0  0  0  0  0  0  0  0  0  0  0  0
    6.1021    2.5564   21.0678 C   0  0  0  0  0  0  0  0  0  0  0  0
   10.9097   11.8051   18.4804 C   0  0  0  0  0  0  0  0  0  0  0  0
   11.2280   12.9135   17.5669 C   0  0  0  0  0  0  0  0  0  0  0  0
   12.3782    5.4231   20.7777 C   0  0  0  0  0  0  0  0  0  0  0  0
    7.7365    4.6508   21.6987 C   0  0  0  0  0  0  0  0  0  0  0  0
   13.0186   11.0102   18.0020 C   0  0  0  0  0  0  0  0  0  0  0  0
    8.6628    5.7088   21.8871 N   0  0  0  0  0  0  0  0  0  0  0  0
    5.6516    3.5258   21.9140 C   0  0  0  0  0  0  0  0  0  0  0  0
   11.5863    9.6815   19.4539 C   0  0  0  0  0  0  0  0  0  0  0  0
   12.9648    4.1543   20.9205 C   0  0  0  0  0  0  0  0  0  0  0  0
    8.2089    3.6265   20.8929 C   0  0  0  0  0  0  0  0  0  0  0  0
    7.3827    2.5724   20.5432 C   0  0  0  0  0  0  0  0  0  0  0  0
   11.1529    7.2750   20.8025 C   0  0  0  0  0  0  0  0  0  0  0  0
   10.2573    8.3215   20.9827 C   0  0  0  0  0  0  0  0  0  0  0  0
   11.1606    5.9378   21.2366 N   0  0  0  0  0  0  0  0  0  0  0  0
    9.8932   11.6736   19.0677 O   0  0  0  0  0  0  0  0  0  0  0  0
    6.4470    4.5850   22.2321 C   0  0  0  0  0  0  0  0  0  0  0  0
    8.4619    6.9895   22.2968 C   0  0  0  0  0  0  0  0  0  0  0  0
   12.2747    7.5102   20.0420 C   0  0  0  0  0  0  0  0  0  0  0  0
   14.2544    6.2142   19.4191 C   0  0  0  0  0  0  0  0  0  0  0  0
   13.0695    6.3705   20.0375 N   0  0  0  0  0  0  0  0  0  0  0  0
    9.1913    8.0876   21.8361 N   0  0  0  0  0  0  0  0  0  0  0  0
   10.4739    9.4813   20.2889 C   0  0  0  0  0  0  0  0  0  0  0  0
    7.5551    7.1270   23.1200 O   0  0  0  0  0  0  0  0  0  0  0  0
  1 11  4  0
  1 21  4  0
  2  4  1  0
  2  8  1  0
  2 11  1  0
  3 10  4  0
  3 14  4  0
  4  5  1  0
  4 18  2  0
  6 12  1  0
  6 17  4  0
  6 23  4  0
  7  9  1  0
  7 13  4  0
  7 19  4  0
  9 20  1  0
 10 19  4  0
 11 25  4  0
 13 14  4  0
 15 16  4  0
 15 17  4  0
 15 21  4  0
 16 24  1  0
 16 25  4  0
 20 24  1  0
 20 26  2  0
 21 23  4  0
 22 23  1  0
M  END
$$$$

 Created by Python create_sdf_string function

 26 28  0  0  0  0  0  0  0  0999 V2000
   12.4616    8.6700   19.4180 N   0  0  0  0  0  0  0  0  0  0  0  0
   11.8329   10.8148   18.6769 N   0  0  0  0  0  0  0  0  0  0  0  0
    6.1021    2.5564   21.0678 C   0  0  0  0  0  0  0  0  0  0  0  0
   10.9097   11.8051   18.4804 C   0  0  0  0  0  0  0  0  0  0  0  0
   11.2280   12.9135   17.5669 C   0  0  0  0  0  0  0  0  0  0  0  0
   12.3782    5.4231   20.7777 C   0  0  0  0  0  0  0  0  0  0  0  0
    7.7365    4.6508   21.6987 C   0  0  0  0  0  0  0  0  0  0  0  0
   13.0186   11.0102   18.0020 C   0  0  0  0  0  0  0  0  0  0  0  0
    8.6628    5.7088   21.8871 N   0  0  0  0  0  0  0  0  0  0  0  0
    5.6516    3.5258   21.9140 C   0  0  0  0  0  0  0  0  0  0  0  0
   11.5863    9.6815   19.4539 C   0  0  0  0  0  0  0  0  0  0  0  0
   12.9648    4.1543   20.9205 C   0  0  0  0  0  0  0  0  0  0  0  0
    8.2089    3.6265   20.8929 C   0  0  0  0  0  0  0  0  0  0  0  0
    7.3827    2.5724   20.5432 C   0  0  0  0  0  0  0  0  0  0  0  0
   11.1529    7.2750   20.8025 C   0  0  0  0  0  0  0  0  0  0  0  0
   10.2573    8.3215   20.9827 C   0  0  0  0  0  0  0  0  0  0  0  0
   11.1606    5.9378   21.2366 N   0  0  0  0  0  0  0  0  0  0  0  0
    9.8932   11.6736   19.0677 O   0  0  0  0  0  0  0  0  0  0  0  0
    6.4470    4.5850   22.2321 C   0  0  0  0  0  0  0  0  0  0  0  0
    8.4619    6.9895   22.2968 C   0  0  0  0  0  0  0  0  0  0  0  0
   12.2747    7.5102   20.0420 C   0  0  0  0  0  0  0  0  0  0  0  0
   14.2544    6.2142   19.4191 C   0  0  0  0  0  0  0  0  0  0  0  0
   13.0695    6.3705   20.0375 N   0  0  0  0  0  0  0  0  0  0  0  0
    9.1913    8.0876   21.8361 N   0  0  0  0  0  0  0  0  0  0  0  0
   10.4739    9.4813   20.2889 C   0  0  0  0  0  0  0  0  0  0  0  0
    7.5551    7.1270   23.1200 O   0  0  0  0  0  0  0  0  0  0  0  0
  1 11  4  0
  1 21  4  0
  2  4  1  0
  2  8  1  0
  2 11  1  0
  3 10  4  0
  3 14  4  0
  4  5  1  0
  4 18  2  0
  6 12  1  0
  6 17  4  0
  6 23  4  0
  7  9  1  0
  7 13  4  0
  7 19  4  0
  9 20  1  0
 10 19  4  0
 11 25  4  0
 13 14  4  0
 15 16  4  0
 15 17  4  0
 15 21  4  0
 16 24  1  0
 16 25  4  0
 20 24  1  0
 20 26  2  0
 21 23  4  0
 22 23  1  0
M  END
$$$$

 Created by Python create_sdf_string function

 26 28  0  0  0  0  0  0  0  0999 V2000
   12.4616    8.6700   19.4180 N   0  0  0  0  0  0  0  0  0  0  0  0
   11.8329   10.8148   18.6769 N   0  0  0  0  0  0  0  0  0  0  0  0
    6.1021    2.5564   21.0678 C   0  0  0  0  0  0  0  0  0  0  0  0
   10.9097   11.8051   18.4804 C   0  0  0  0  0  0  0  0  0  0  0  0
   11.2280   12.9135   17.5669 C   0  0  0  0  0  0  0  0  0  0  0  0
   12.3782    5.4231   20.7777 C   0  0  0  0  0  0  0  0  0  0  0  0
    7.7365    4.6508   21.6987 C   0  0  0  0  0  0  0  0  0  0  0  0
   13.0186   11.0102   18.0020 C   0  0  0  0  0  0  0  0  0  0  0  0
    8.6628    5.7088   21.8871 N   0  0  0  0  0  0  0  0  0  0  0  0
    5.6516    3.5258   21.9140 C   0  0  0  0  0  0  0  0  0  0  0  0
   11.5863    9.6815   19.4539 C   0  0  0  0  0  0  0  0  0  0  0  0
   12.9648    4.1543   20.9205 C   0  0  0  0  0  0  0  0  0  0  0  0
    8.2089    3.6265   20.8929 C   0  0  0  0  0  0  0  0  0  0  0  0
    7.3827    2.5724   20.5432 C   0  0  0  0  0  0  0  0  0  0  0  0
   11.1529    7.2750   20.8025 C   0  0  0  0  0  0  0  0  0  0  0  0
   10.2573    8.3215   20.9827 C   0  0  0  0  0  0  0  0  0  0  0  0
   11.1606    5.9378   21.2366 N   0  0  0  0  0  0  0  0  0  0  0  0
    9.8932   11.6736   19.0677 O   0  0  0  0  0  0  0  0  0  0  0  0
    6.4470    4.5850   22.2321 C   0  0  0  0  0  0  0  0  0  0  0  0
    8.4619    6.9895   22.2968 C   0  0  0  0  0  0  0  0  0  0  0  0
   12.2747    7.5102   20.0420 C   0  0  0  0  0  0  0  0  0  0  0  0
   14.2544    6.2142   19.4191 C   0  0  0  0  0  0  0  0  0  0  0  0
   13.0695    6.3705   20.0375 N   0  0  0  0  0  0  0  0  0  0  0  0
    9.1913    8.0876   21.8361 N   0  0  0  0  0  0  0  0  0  0  0  0
   10.4739    9.4813   20.2889 C   0  0  0  0  0  0  0  0  0  0  0  0
    7.5551    7.1270   23.1200 O   0  0  0  0  0  0  0  0  0  0  0  0
  1 11  4  0
  1 21  4  0
  2  4  1  0
  2  8  1  0
  2 11  1  0
  3 10  4  0
  3 14  4  0
  4  5  1  0
  4 18  2  0
  6 12  1  0
  6 17  4  0
  6 23  4  0
  7  9  1  0
  7 13  4  0
  7 19  4  0
  9 20  1  0
 10 19  4  0
 11 25  4  0
 13 14  4  0
 15 16  4  0
 15 17  4  0
 15 21  4  0
 16 24  1  0
 16 25  4  0
 20 24  1  0
 20 26  2  0
 21 23  4  0
 22 23  1  0
M  END
$$$$

 Created by Python create_sdf_string function

 26 28  0  0  0  0  0  0  0  0999 V2000
   12.4616    8.6700   19.4180 N   0  0  0  0  0  0  0  0  0  0  0  0
   11.8329   10.8148   18.6769 N   0  0  0  0  0  0  0  0  0  0  0  0
    6.1021    2.5564   21.0678 C   0  0  0  0  0  0  0  0  0  0  0  0
   10.9097   11.8051   18.4804 C   0  0  0  0  0  0  0  0  0  0  0  0
   11.2280   12.9135   17.5669 C   0  0  0  0  0  0  0  0  0  0  0  0
   12.3782    5.4231   20.7777 C   0  0  0  0  0  0  0  0  0  0  0  0
    7.7365    4.6508   21.6987 C   0  0  0  0  0  0  0  0  0  0  0  0
   13.0186   11.0102   18.0020 C   0  0  0  0  0  0  0  0  0  0  0  0
    8.6628    5.7088   21.8871 N   0  0  0  0  0  0  0  0  0  0  0  0
    5.6516    3.5258   21.9140 C   0  0  0  0  0  0  0  0  0  0  0  0
   11.5863    9.6815   19.4539 C   0  0  0  0  0  0  0  0  0  0  0  0
   12.9648    4.1543   20.9205 C   0  0  0  0  0  0  0  0  0  0  0  0
    8.2089    3.6265   20.8929 C   0  0  0  0  0  0  0  0  0  0  0  0
    7.3827    2.5724   20.5432 C   0  0  0  0  0  0  0  0  0  0  0  0
   11.1529    7.2750   20.8025 C   0  0  0  0  0  0  0  0  0  0  0  0
   10.2573    8.3215   20.9827 C   0  0  0  0  0  0  0  0  0  0  0  0
   11.1606    5.9378   21.2366 N   0  0  0  0  0  0  0  0  0  0  0  0
    9.8932   11.6736   19.0677 O   0  0  0  0  0  0  0  0  0  0  0  0
    6.4470    4.5850   22.2321 C   0  0  0  0  0  0  0  0  0  0  0  0
    8.4619    6.9895   22.2968 C   0  0  0  0  0  0  0  0  0  0  0  0
   12.2747    7.5102   20.0420 C   0  0  0  0  0  0  0  0  0  0  0  0
   14.2544    6.2142   19.4191 C   0  0  0  0  0  0  0  0  0  0  0  0
   13.0695    6.3705   20.0375 N   0  0  0  0  0  0  0  0  0  0  0  0
    9.1913    8.0876   21.8361 N   0  0  0  0  0  0  0  0  0  0  0  0
   10.4739    9.4813   20.2889 C   0  0  0  0  0  0  0  0  0  0  0  0
    7.5551    7.1270   23.1200 O   0  0  0  0  0  0  0  0  0  0  0  0
  1 11  4  0
  1 21  4  0
  2  4  1  0
  2  8  1  0
  2 11  1  0
  3 10  4  0
  3 14  4  0
  4  5  1  0
  4 18  2  0
  6 12  1  0
  6 17  4  0
  6 23  4  0
  7  9  1  0
  7 13  4  0
  7 19  4  0
  9 20  1  0
 10 19  4  0
 11 25  4  0
 13 14  4  0
 15 16  4  0
 15 17  4  0
 15 21  4  0
 16 24  1  0
 16 25  4  0
 20 24  1  0
 20 26  2  0
 21 23  4  0
 22 23  1  0
M  END
$$$$

 Created by Python create_sdf_string function

 26 28  0  0  0  0  0  0  0  0999 V2000
   12.4616    8.6700   19.4180 N   0  0  0  0  0  0  0  0  0  0  0  0
   11.8329   10.8148   18.6769 N   0  0  0  0  0  0  0  0  0  0  0  0
    6.1021    2.5564   21.0678 C   0  0  0  0  0  0  0  0  0  0  0  0
   10.9097   11.8051   18.4804 C   0  0  0  0  0  0  0  0  0  0  0  0
   11.2280   12.9135   17.5669 C   0  0  0  0  0  0  0  0  0  0  0  0
   12.3782    5.4231   20.7777 C   0  0  0  0  0  0  0  0  0  0  0  0
    7.7365    4.6508   21.6987 C   0  0  0  0  0  0  0  0  0  0  0  0
   13.0186   11.0102   18.0020 C   0  0  0  0  0  0  0  0  0  0  0  0
    8.6628    5.7088   21.8871 N   0  0  0  0  0  0  0  0  0  0  0  0
    5.6516    3.5258   21.9140 C   0  0  0  0  0  0  0  0  0  0  0  0
   11.5863    9.6815   19.4539 C   0  0  0  0  0  0  0  0  0  0  0  0
   12.9648    4.1543   20.9205 C   0  0  0  0  0  0  0  0  0  0  0  0
    8.2089    3.6265   20.8929 C   0  0  0  0  0  0  0  0  0  0  0  0
    7.3827    2.5724   20.5432 C   0  0  0  0  0  0  0  0  0  0  0  0
   11.1529    7.2750   20.8025 C   0  0  0  0  0  0  0  0  0  0  0  0
   10.2573    8.3215   20.9827 C   0  0  0  0  0  0  0  0  0  0  0  0
   11.1606    5.9378   21.2366 N   0  0  0  0  0  0  0  0  0  0  0  0
    9.8932   11.6736   19.0677 O   0  0  0  0  0  0  0  0  0  0  0  0
    6.4470    4.5850   22.2321 C   0  0  0  0  0  0  0  0  0  0  0  0
    8.4619    6.9895   22.2968 C   0  0  0  0  0  0  0  0  0  0  0  0
   12.2747    7.5102   20.0420 C   0  0  0  0  0  0  0  0  0  0  0  0
   14.2544    6.2142   19.4191 C   0  0  0  0  0  0  0  0  0  0  0  0
   13.0695    6.3705   20.0375 N   0  0  0  0  0  0  0  0  0  0  0  0
    9.1913    8.0876   21.8361 N   0  0  0  0  0  0  0  0  0  0  0  0
   10.4739    9.4813   20.2889 C   0  0  0  0  0  0  0  0  0  0  0  0
    7.5551    7.1270   23.1200 O   0  0  0  0  0  0  0  0  0  0  0  0
  1 11  4  0
  1 21  4  0
  2  4  1  0
  2  8  1  0
  2 11  1  0
  3 10  4  0
  3 14  4  0
  4  5  1  0
  4 18  2  0
  6 12  1  0
  6 17  4  0
  6 23  4  0
  7  9  1  0
  7 13  4  0
  7 19  4  0
  9 20  1  0
 10 19  4  0
 11 25  4  0
 13 14  4  0
 15 16  4  0
 15 17  4  0
 15 21  4  0
 16 24  1  0
 16 25  4  0
 20 24  1  0
 20 26  2  0
 21 23  4  0
 22 23  1  0
M  END
$$$$

 Created by Python create_sdf_string function

 26 28  0  0  0  0  0  0  0  0999 V2000
   12.4616    8.6700   19.4180 N   0  0  0  0  0  0  0  0  0  0  0  0
   11.8329   10.8148   18.6769 N   0  0  0  0  0  0  0  0  0  0  0  0
    6.1021    2.5564   21.0678 C   0  0  0  0  0  0  0  0  0  0  0  0
   10.9097   11.8051   18.4804 C   0  0  0  0  0  0  0  0  0  0  0  0
   11.2280   12.9135   17.5669 C   0  0  0  0  0  0  0  0  0  0  0  0
   12.3782    5.4231   20.7777 C   0  0  0  0  0  0  0  0  0  0  0  0
    7.7365    4.6508   21.6987 C   0  0  0  0  0  0  0  0  0  0  0  0
   13.0186   11.0102   18.0020 C   0  0  0  0  0  0  0  0  0  0  0  0
    8.6628    5.7088   21.8871 N   0  0  0  0  0  0  0  0  0  0  0  0
    5.6516    3.5258   21.9140 C   0  0  0  0  0  0  0  0  0  0  0  0
   11.5863    9.6815   19.4539 C   0  0  0  0  0  0  0  0  0  0  0  0
   12.9648    4.1543   20.9205 C   0  0  0  0  0  0  0  0  0  0  0  0
    8.2089    3.6265   20.8929 C   0  0  0  0  0  0  0  0  0  0  0  0
    7.3827    2.5724   20.5432 C   0  0  0  0  0  0  0  0  0  0  0  0
   11.1529    7.2750   20.8025 C   0  0  0  0  0  0  0  0  0  0  0  0
   10.2573    8.3215   20.9827 C   0  0  0  0  0  0  0  0  0  0  0  0
   11.1606    5.9378   21.2366 N   0  0  0  0  0  0  0  0  0  0  0  0
    9.8932   11.6736   19.0677 O   0  0  0  0  0  0  0  0  0  0  0  0
    6.4470    4.5850   22.2321 C   0  0  0  0  0  0  0  0  0  0  0  0
    8.4619    6.9895   22.2968 C   0  0  0  0  0  0  0  0  0  0  0  0
   12.2747    7.5102   20.0420 C   0  0  0  0  0  0  0  0  0  0  0  0
   14.2544    6.2142   19.4191 C   0  0  0  0  0  0  0  0  0  0  0  0
   13.0695    6.3705   20.0375 N   0  0  0  0  0  0  0  0  0  0  0  0
    9.1913    8.0876   21.8361 N   0  0  0  0  0  0  0  0  0  0  0  0
   10.4739    9.4813   20.2889 C   0  0  0  0  0  0  0  0  0  0  0  0
    7.5551    7.1270   23.1200 O   0  0  0  0  0  0  0  0  0  0  0  0
  1 11  4  0
  1 21  4  0
  2  4  1  0
  2  8  1  0
  2 11  1  0
  3 10  4  0
  3 14  4  0
  4  5  1  0
  4 18  2  0
  6 12  1  0
  6 17  4  0
  6 23  4  0
  7  9  1  0
  7 13  4  0
  7 19  4  0
  9 20  1  0
 10 19  4  0
 11 25  4  0
 13 14  4  0
 15 16  4  0
 15 17  4  0
 15 21  4  0
 16 24  1  0
 16 25  4  0
 20 24  1  0
 20 26  2  0
 21 23  4  0
 22 23  1  0
M  END
$$$$

 Created by Python create_sdf_string function

 26 28  0  0  0  0  0  0  0  0999 V2000
   12.4616    8.6700   19.4180 N   0  0  0  0  0  0  0  0  0  0  0  0
   11.8329   10.8148   18.6769 N   0  0  0  0  0  0  0  0  0  0  0  0
    6.1021    2.5564   21.0678 C   0  0  0  0  0  0  0  0  0  0  0  0
   10.9097   11.8051   18.4804 C   0  0  0  0  0  0  0  0  0  0  0  0
   11.2280   12.9135   17.5669 C   0  0  0  0  0  0  0  0  0  0  0  0
   12.3782    5.4231   20.7777 C   0  0  0  0  0  0  0  0  0  0  0  0
    7.7365    4.6508   21.6987 C   0  0  0  0  0  0  0  0  0  0  0  0
   13.0186   11.0102   18.0020 C   0  0  0  0  0  0  0  0  0  0  0  0
    8.6628    5.7088   21.8871 N   0  0  0  0  0  0  0  0  0  0  0  0
    5.6516    3.5258   21.9140 C   0  0  0  0  0  0  0  0  0  0  0  0
   11.5863    9.6815   19.4539 C   0  0  0  0  0  0  0  0  0  0  0  0
   12.9648    4.1543   20.9205 C   0  0  0  0  0  0  0  0  0  0  0  0
    8.2089    3.6265   20.8929 C   0  0  0  0  0  0  0  0  0  0  0  0
    7.3827    2.5724   20.5432 C   0  0  0  0  0  0  0  0  0  0  0  0
   11.1529    7.2750   20.8025 C   0  0  0  0  0  0  0  0  0  0  0  0
   10.2573    8.3215   20.9827 C   0  0  0  0  0  0  0  0  0  0  0  0
   11.1606    5.9378   21.2366 N   0  0  0  0  0  0  0  0  0  0  0  0
    9.8932   11.6736   19.0677 O   0  0  0  0  0  0  0  0  0  0  0  0
    6.4470    4.5850   22.2321 C   0  0  0  0  0  0  0  0  0  0  0  0
    8.4619    6.9895   22.2968 C   0  0  0  0  0  0  0  0  0  0  0  0
   12.2747    7.5102   20.0420 C   0  0  0  0  0  0  0  0  0  0  0  0
   14.2544    6.2142   19.4191 C   0  0  0  0  0  0  0  0  0  0  0  0
   13.0695    6.3705   20.0375 N   0  0  0  0  0  0  0  0  0  0  0  0
    9.1913    8.0876   21.8361 N   0  0  0  0  0  0  0  0  0  0  0  0
   10.4739    9.4813   20.2889 C   0  0  0  0  0  0  0  0  0  0  0  0
    7.5551    7.1270   23.1200 O   0  0  0  0  0  0  0  0  0  0  0  0
  1 11  4  0
  1 21  4  0
  2  4  1  0
  2  8  1  0
  2 11  1  0
  3 10  4  0
  3 14  4  0
  4  5  1  0
  4 18  2  0
  6 12  1  0
  6 17  4  0
  6 23  4  0
  7  9  1  0
  7 13  4  0
  7 19  4  0
  9 20  1  0
 10 19  4  0
 11 25  4  0
 13 14  4  0
 15 16  4  0
 15 17  4  0
 15 21  4  0
 16 24  1  0
 16 25  4  0
 20 24  1  0
 20 26  2  0
 21 23  4  0
 22 23  1  0
M  END
$$$$

 Created by Python create_sdf_string function

 26 28  0  0  0  0  0  0  0  0999 V2000
   12.4616    8.6700   19.4180 N   0  0  0  0  0  0  0  0  0  0  0  0
   11.8329   10.8148   18.6769 N   0  0  0  0  0  0  0  0  0  0  0  0
    6.1021    2.5564   21.0678 C   0  0  0  0  0  0  0  0  0  0  0  0
   10.9097   11.8051   18.4804 C   0  0  0  0  0  0  0  0  0  0  0  0
   11.2280   12.9135   17.5669 C   0  0  0  0  0  0  0  0  0  0  0  0
   12.3782    5.4231   20.7777 C   0  0  0  0  0  0  0  0  0  0  0  0
    7.7365    4.6508   21.6987 C   0  0  0  0  0  0  0  0  0  0  0  0
   13.0186   11.0102   18.0020 C   0  0  0  0  0  0  0  0  0  0  0  0
    8.6628    5.7088   21.8871 N   0  0  0  0  0  0  0  0  0  0  0  0
    5.6516    3.5258   21.9140 C   0  0  0  0  0  0  0  0  0  0  0  0
   11.5863    9.6815   19.4539 C   0  0  0  0  0  0  0  0  0  0  0  0
   12.9648    4.1543   20.9205 C   0  0  0  0  0  0  0  0  0  0  0  0
    8.2089    3.6265   20.8929 C   0  0  0  0  0  0  0  0  0  0  0  0
    7.3827    2.5724   20.5432 C   0  0  0  0  0  0  0  0  0  0  0  0
   11.1529    7.2750   20.8025 C   0  0  0  0  0  0  0  0  0  0  0  0
   10.2573    8.3215   20.9827 C   0  0  0  0  0  0  0  0  0  0  0  0
   11.1606    5.9378   21.2366 N   0  0  0  0  0  0  0  0  0  0  0  0
    9.8932   11.6736   19.0677 O   0  0  0  0  0  0  0  0  0  0  0  0
    6.4470    4.5850   22.2321 C   0  0  0  0  0  0  0  0  0  0  0  0
    8.4619    6.9895   22.2968 C   0  0  0  0  0  0  0  0  0  0  0  0
   12.2747    7.5102   20.0420 C   0  0  0  0  0  0  0  0  0  0  0  0
   14.2544    6.2142   19.4191 C   0  0  0  0  0  0  0  0  0  0  0  0
   13.0695    6.3705   20.0375 N   0  0  0  0  0  0  0  0  0  0  0  0
    9.1913    8.0876   21.8361 N   0  0  0  0  0  0  0  0  0  0  0  0
   10.4739    9.4813   20.2889 C   0  0  0  0  0  0  0  0  0  0  0  0
    7.5551    7.1270   23.1200 O   0  0  0  0  0  0  0  0  0  0  0  0
  1 11  4  0
  1 21  4  0
  2  4  1  0
  2  8  1  0
  2 11  1  0
  3 10  4  0
  3 14  4  0
  4  5  1  0
  4 18  2  0
  6 12  1  0
  6 17  4  0
  6 23  4  0
  7  9  1  0
  7 13  4  0
  7 19  4  0
  9 20  1  0
 10 19  4  0
 11 25  4  0
 13 14  4  0
 15 16  4  0
 15 17  4  0
 15 21  4  0
 16 24  1  0
 16 25  4  0
 20 24  1  0
 20 26  2  0
 21 23  4  0
 22 23  1  0
M  END
$$$$

 Created by Python create_sdf_string function

 26 28  0  0  0  0  0  0  0  0999 V2000
   12.4616    8.6700   19.4180 N   0  0  0  0  0  0  0  0  0  0  0  0
   11.8329   10.8148   18.6769 N   0  0  0  0  0  0  0  0  0  0  0  0
    6.1021    2.5564   21.0678 C   0  0  0  0  0  0  0  0  0  0  0  0
   10.9097   11.8051   18.4804 C   0  0  0  0  0  0  0  0  0  0  0  0
   11.2280   12.9135   17.5669 C   0  0  0  0  0  0  0  0  0  0  0  0
   12.3782    5.4231   20.7777 C   0  0  0  0  0  0  0  0  0  0  0  0
    7.7365    4.6508   21.6987 C   0  0  0  0  0  0  0  0  0  0  0  0
   13.0186   11.0102   18.0020 C   0  0  0  0  0  0  0  0  0  0  0  0
    8.6628    5.7088   21.8871 N   0  0  0  0  0  0  0  0  0  0  0  0
    5.6516    3.5258   21.9140 C   0  0  0  0  0  0  0  0  0  0  0  0
   11.5863    9.6815   19.4539 C   0  0  0  0  0  0  0  0  0  0  0  0
   12.9648    4.1543   20.9205 C   0  0  0  0  0  0  0  0  0  0  0  0
    8.2089    3.6265   20.8929 C   0  0  0  0  0  0  0  0  0  0  0  0
    7.3827    2.5724   20.5432 C   0  0  0  0  0  0  0  0  0  0  0  0
   11.1529    7.2750   20.8025 C   0  0  0  0  0  0  0  0  0  0  0  0
   10.2573    8.3215   20.9827 C   0  0  0  0  0  0  0  0  0  0  0  0
   11.1606    5.9378   21.2366 N   0  0  0  0  0  0  0  0  0  0  0  0
    9.8932   11.6736   19.0677 O   0  0  0  0  0  0  0  0  0  0  0  0
    6.4470    4.5850   22.2321 C   0  0  0  0  0  0  0  0  0  0  0  0
    8.4619    6.9895   22.2968 C   0  0  0  0  0  0  0  0  0  0  0  0
   12.2747    7.5102   20.0420 C   0  0  0  0  0  0  0  0  0  0  0  0
   14.2544    6.2142   19.4191 C   0  0  0  0  0  0  0  0  0  0  0  0
   13.0695    6.3705   20.0375 N   0  0  0  0  0  0  0  0  0  0  0  0
    9.1913    8.0876   21.8361 N   0  0  0  0  0  0  0  0  0  0  0  0
   10.4739    9.4813   20.2889 C   0  0  0  0  0  0  0  0  0  0  0  0
    7.5551    7.1270   23.1200 O   0  0  0  0  0  0  0  0  0  0  0  0
  1 11  4  0
  1 21  4  0
  2  4  1  0
  2  8  1  0
  2 11  1  0
  3 10  4  0
  3 14  4  0
  4  5  1  0
  4 18  2  0
  6 12  1  0
  6 17  4  0
  6 23  4  0
  7  9  1  0
  7 13  4  0
  7 19  4  0
  9 20  1  0
 10 19  4  0
 11 25  4  0
 13 14  4  0
 15 16  4  0
 15 17  4  0
 15 21  4  0
 16 24  1  0
 16 25  4  0
 20 24  1  0
 20 26  2  0
 21 23  4  0
 22 23  1  0
M  END
$$$$

 Created by Python create_sdf_string function

 26 28  0  0  0  0  0  0  0  0999 V2000
   12.4616    8.6700   19.4180 N   0  0  0  0  0  0  0  0  0  0  0  0
   11.8329   10.8148   18.6769 N   0  0  0  0  0  0  0  0  0  0  0  0
    6.1021    2.5564   21.0678 C   0  0  0  0  0  0  0  0  0  0  0  0
   10.9097   11.8051   18.4804 C   0  0  0  0  0  0  0  0  0  0  0  0
   11.2280   12.9135   17.5669 C   0  0  0  0  0  0  0  0  0  0  0  0
   12.3782    5.4231   20.7777 C   0  0  0  0  0  0  0  0  0  0  0  0
    7.7365    4.6508   21.6987 C   0  0  0  0  0  0  0  0  0  0  0  0
   13.0186   11.0102   18.0020 C   0  0  0  0  0  0  0  0  0  0  0  0
    8.6628    5.7088   21.8871 N   0  0  0  0  0  0  0  0  0  0  0  0
    5.6516    3.5258   21.9140 C   0  0  0  0  0  0  0  0  0  0  0  0
   11.5863    9.6815   19.4539 C   0  0  0  0  0  0  0  0  0  0  0  0
   12.9648    4.1543   20.9205 C   0  0  0  0  0  0  0  0  0  0  0  0
    8.2089    3.6265   20.8929 C   0  0  0  0  0  0  0  0  0  0  0  0
    7.3827    2.5724   20.5432 C   0  0  0  0  0  0  0  0  0  0  0  0
   11.1529    7.2750   20.8025 C   0  0  0  0  0  0  0  0  0  0  0  0
   10.2573    8.3215   20.9827 C   0  0  0  0  0  0  0  0  0  0  0  0
   11.1606    5.9378   21.2366 N   0  0  0  0  0  0  0  0  0  0  0  0
    9.8932   11.6736   19.0677 O   0  0  0  0  0  0  0  0  0  0  0  0
    6.4470    4.5850   22.2321 C   0  0  0  0  0  0  0  0  0  0  0  0
    8.4619    6.9895   22.2968 C   0  0  0  0  0  0  0  0  0  0  0  0
   12.2747    7.5102   20.0420 C   0  0  0  0  0  0  0  0  0  0  0  0
   14.2544    6.2142   19.4191 C   0  0  0  0  0  0  0  0  0  0  0  0
   13.0695    6.3705   20.0375 N   0  0  0  0  0  0  0  0  0  0  0  0
    9.1913    8.0876   21.8361 N   0  0  0  0  0  0  0  0  0  0  0  0
   10.4739    9.4813   20.2889 C   0  0  0  0  0  0  0  0  0  0  0  0
    7.5551    7.1270   23.1200 O   0  0  0  0  0  0  0  0  0  0  0  0
  1 11  4  0
  1 21  4  0
  2  4  1  0
  2  8  1  0
  2 11  1  0
  3 10  4  0
  3 14  4  0
  4  5  1  0
  4 18  2  0
  6 12  1  0
  6 17  4  0
  6 23  4  0
  7  9  1  0
  7 13  4  0
  7 19  4  0
  9 20  1  0
 10 19  4  0
 11 25  4  0
 13 14  4  0
 15 16  4  0
 15 17  4  0
 15 21  4  0
 16 24  1  0
 16 25  4  0
 20 24  1  0
 20 26  2  0
 21 23  4  0
 22 23  1  0
M  END
$$$$

 Created by Python create_sdf_string function

 26 28  0  0  0  0  0  0  0  0999 V2000
   12.4616    8.6700   19.4180 N   0  0  0  0  0  0  0  0  0  0  0  0
   11.8329   10.8148   18.6769 N   0  0  0  0  0  0  0  0  0  0  0  0
    6.1021    2.5564   21.0678 C   0  0  0  0  0  0  0  0  0  0  0  0
   10.9097   11.8051   18.4804 C   0  0  0  0  0  0  0  0  0  0  0  0
   11.2280   12.9135   17.5669 C   0  0  0  0  0  0  0  0  0  0  0  0
   12.3782    5.4231   20.7777 C   0  0  0  0  0  0  0  0  0  0  0  0
    7.7365    4.6508   21.6987 C   0  0  0  0  0  0  0  0  0  0  0  0
   13.0186   11.0102   18.0020 C   0  0  0  0  0  0  0  0  0  0  0  0
    8.6628    5.7088   21.8871 N   0  0  0  0  0  0  0  0  0  0  0  0
    5.6516    3.5258   21.9140 C   0  0  0  0  0  0  0  0  0  0  0  0
   11.5863    9.6815   19.4539 C   0  0  0  0  0  0  0  0  0  0  0  0
   12.9648    4.1543   20.9205 C   0  0  0  0  0  0  0  0  0  0  0  0
    8.2089    3.6265   20.8929 C   0  0  0  0  0  0  0  0  0  0  0  0
    7.3827    2.5724   20.5432 C   0  0  0  0  0  0  0  0  0  0  0  0
   11.1529    7.2750   20.8025 C   0  0  0  0  0  0  0  0  0  0  0  0
   10.2573    8.3215   20.9827 C   0  0  0  0  0  0  0  0  0  0  0  0
   11.1606    5.9378   21.2366 N   0  0  0  0  0  0  0  0  0  0  0  0
    9.8932   11.6736   19.0677 O   0  0  0  0  0  0  0  0  0  0  0  0
    6.4470    4.5850   22.2321 C   0  0  0  0  0  0  0  0  0  0  0  0
    8.4619    6.9895   22.2968 C   0  0  0  0  0  0  0  0  0  0  0  0
   12.2747    7.5102   20.0420 C   0  0  0  0  0  0  0  0  0  0  0  0
   14.2544    6.2142   19.4191 C   0  0  0  0  0  0  0  0  0  0  0  0
   13.0695    6.3705   20.0375 N   0  0  0  0  0  0  0  0  0  0  0  0
    9.1913    8.0876   21.8361 N   0  0  0  0  0  0  0  0  0  0  0  0
   10.4739    9.4813   20.2889 C   0  0  0  0  0  0  0  0  0  0  0  0
    7.5551    7.1270   23.1200 O   0  0  0  0  0  0  0  0  0  0  0  0
  1 11  4  0
  1 21  4  0
  2  4  1  0
  2  8  1  0
  2 11  1  0
  3 10  4  0
  3 14  4  0
  4  5  1  0
  4 18  2  0
  6 12  1  0
  6 17  4  0
  6 23  4  0
  7  9  1  0
  7 13  4  0
  7 19  4  0
  9 20  1  0
 10 19  4  0
 11 25  4  0
 13 14  4  0
 15 16  4  0
 15 17  4  0
 15 21  4  0
 16 24  1  0
 16 25  4  0
 20 24  1  0
 20 26  2  0
 21 23  4  0
 22 23  1  0
M  END
$$$$

 Created by Python create_sdf_string function

 26 28  0  0  0  0  0  0  0  0999 V2000
   12.4616    8.6700   19.4180 N   0  0  0  0  0  0  0  0  0  0  0  0
   11.8329   10.8148   18.6769 N   0  0  0  0  0  0  0  0  0  0  0  0
    6.1021    2.5564   21.0678 C   0  0  0  0  0  0  0  0  0  0  0  0
   10.9097   11.8051   18.4804 C   0  0  0  0  0  0  0  0  0  0  0  0
   11.2280   12.9135   17.5669 C   0  0  0  0  0  0  0  0  0  0  0  0
   12.3782    5.4231   20.7777 C   0  0  0  0  0  0  0  0  0  0  0  0
    7.7365    4.6508   21.6987 C   0  0  0  0  0  0  0  0  0  0  0  0
   13.0186   11.0102   18.0020 C   0  0  0  0  0  0  0  0  0  0  0  0
    8.6628    5.7088   21.8871 N   0  0  0  0  0  0  0  0  0  0  0  0
    5.6516    3.5258   21.9140 C   0  0  0  0  0  0  0  0  0  0  0  0
   11.5863    9.6815   19.4539 C   0  0  0  0  0  0  0  0  0  0  0  0
   12.9648    4.1543   20.9205 C   0  0  0  0  0  0  0  0  0  0  0  0
    8.2089    3.6265   20.8929 C   0  0  0  0  0  0  0  0  0  0  0  0
    7.3827    2.5724   20.5432 C   0  0  0  0  0  0  0  0  0  0  0  0
   11.1529    7.2750   20.8025 C   0  0  0  0  0  0  0  0  0  0  0  0
   10.2573    8.3215   20.9827 C   0  0  0  0  0  0  0  0  0  0  0  0
   11.1606    5.9378   21.2366 N   0  0  0  0  0  0  0  0  0  0  0  0
    9.8932   11.6736   19.0677 O   0  0  0  0  0  0  0  0  0  0  0  0
    6.4470    4.5850   22.2321 C   0  0  0  0  0  0  0  0  0  0  0  0
    8.4619    6.9895   22.2968 C   0  0  0  0  0  0  0  0  0  0  0  0
   12.2747    7.5102   20.0420 C   0  0  0  0  0  0  0  0  0  0  0  0
   14.2544    6.2142   19.4191 C   0  0  0  0  0  0  0  0  0  0  0  0
   13.0695    6.3705   20.0375 N   0  0  0  0  0  0  0  0  0  0  0  0
    9.1913    8.0876   21.8361 N   0  0  0  0  0  0  0  0  0  0  0  0
   10.4739    9.4813   20.2889 C   0  0  0  0  0  0  0  0  0  0  0  0
    7.5551    7.1270   23.1200 O   0  0  0  0  0  0  0  0  0  0  0  0
  1 11  4  0
  1 21  4  0
  2  4  1  0
  2  8  1  0
  2 11  1  0
  3 10  4  0
  3 14  4  0
  4  5  1  0
  4 18  2  0
  6 12  1  0
  6 17  4  0
  6 23  4  0
  7  9  1  0
  7 13  4  0
  7 19  4  0
  9 20  1  0
 10 19  4  0
 11 25  4  0
 13 14  4  0
 15 16  4  0
 15 17  4  0
 15 21  4  0
 16 24  1  0
 16 25  4  0
 20 24  1  0
 20 26  2  0
 21 23  4  0
 22 23  1  0
M  END
$$$$

 Created by Python create_sdf_string function

 26 28  0  0  0  0  0  0  0  0999 V2000
   12.4616    8.6700   19.4180 N   0  0  0  0  0  0  0  0  0  0  0  0
   11.8329   10.8148   18.6769 N   0  0  0  0  0  0  0  0  0  0  0  0
    6.1021    2.5564   21.0678 C   0  0  0  0  0  0  0  0  0  0  0  0
   10.9097   11.8051   18.4804 C   0  0  0  0  0  0  0  0  0  0  0  0
   11.2280   12.9135   17.5669 C   0  0  0  0  0  0  0  0  0  0  0  0
   12.3782    5.4231   20.7777 C   0  0  0  0  0  0  0  0  0  0  0  0
    7.7365    4.6508   21.6987 C   0  0  0  0  0  0  0  0  0  0  0  0
   13.0186   11.0102   18.0020 C   0  0  0  0  0  0  0  0  0  0  0  0
    8.6628    5.7088   21.8871 N   0  0  0  0  0  0  0  0  0  0  0  0
    5.6516    3.5258   21.9140 C   0  0  0  0  0  0  0  0  0  0  0  0
   11.5863    9.6815   19.4539 C   0  0  0  0  0  0  0  0  0  0  0  0
   12.9648    4.1543   20.9205 C   0  0  0  0  0  0  0  0  0  0  0  0
    8.2089    3.6265   20.8929 C   0  0  0  0  0  0  0  0  0  0  0  0
    7.3827    2.5724   20.5432 C   0  0  0  0  0  0  0  0  0  0  0  0
   11.1529    7.2750   20.8025 C   0  0  0  0  0  0  0  0  0  0  0  0
   10.2573    8.3215   20.9827 C   0  0  0  0  0  0  0  0  0  0  0  0
   11.1606    5.9378   21.2366 N   0  0  0  0  0  0  0  0  0  0  0  0
    9.8932   11.6736   19.0677 O   0  0  0  0  0  0  0  0  0  0  0  0
    6.4470    4.5850   22.2321 C   0  0  0  0  0  0  0  0  0  0  0  0
    8.4619    6.9895   22.2968 C   0  0  0  0  0  0  0  0  0  0  0  0
   12.2747    7.5102   20.0420 C   0  0  0  0  0  0  0  0  0  0  0  0
   14.2544    6.2142   19.4191 C   0  0  0  0  0  0  0  0  0  0  0  0
   13.0695    6.3705   20.0375 N   0  0  0  0  0  0  0  0  0  0  0  0
    9.1913    8.0876   21.8361 N   0  0  0  0  0  0  0  0  0  0  0  0
   10.4739    9.4813   20.2889 C   0  0  0  0  0  0  0  0  0  0  0  0
    7.5551    7.1270   23.1200 O   0  0  0  0  0  0  0  0  0  0  0  0
  1 11  4  0
  1 21  4  0
  2  4  1  0
  2  8  1  0
  2 11  1  0
  3 10  4  0
  3 14  4  0
  4  5  1  0
  4 18  2  0
  6 12  1  0
  6 17  4  0
  6 23  4  0
  7  9  1  0
  7 13  4  0
  7 19  4  0
  9 20  1  0
 10 19  4  0
 11 25  4  0
 13 14  4  0
 15 16  4  0
 15 17  4  0
 15 21  4  0
 16 24  1  0
 16 25  4  0
 20 24  1  0
 20 26  2  0
 21 23  4  0
 22 23  1  0
M  END
$$$$

 Created by Python create_sdf_string function

 26 28  0  0  0  0  0  0  0  0999 V2000
   12.4616    8.6700   19.4180 N   0  0  0  0  0  0  0  0  0  0  0  0
   11.8329   10.8148   18.6769 N   0  0  0  0  0  0  0  0  0  0  0  0
    6.1021    2.5564   21.0678 C   0  0  0  0  0  0  0  0  0  0  0  0
   10.9097   11.8051   18.4804 C   0  0  0  0  0  0  0  0  0  0  0  0
   11.2280   12.9135   17.5669 C   0  0  0  0  0  0  0  0  0  0  0  0
   12.3782    5.4231   20.7777 C   0  0  0  0  0  0  0  0  0  0  0  0
    7.7365    4.6508   21.6987 C   0  0  0  0  0  0  0  0  0  0  0  0
   13.0186   11.0102   18.0020 C   0  0  0  0  0  0  0  0  0  0  0  0
    8.6628    5.7088   21.8871 N   0  0  0  0  0  0  0  0  0  0  0  0
    5.6516    3.5258   21.9140 C   0  0  0  0  0  0  0  0  0  0  0  0
   11.5863    9.6815   19.4539 C   0  0  0  0  0  0  0  0  0  0  0  0
   12.9648    4.1543   20.9205 C   0  0  0  0  0  0  0  0  0  0  0  0
    8.2089    3.6265   20.8929 C   0  0  0  0  0  0  0  0  0  0  0  0
    7.3827    2.5724   20.5432 C   0  0  0  0  0  0  0  0  0  0  0  0
   11.1529    7.2750   20.8025 C   0  0  0  0  0  0  0  0  0  0  0  0
   10.2573    8.3215   20.9827 C   0  0  0  0  0  0  0  0  0  0  0  0
   11.1606    5.9378   21.2366 N   0  0  0  0  0  0  0  0  0  0  0  0
    9.8932   11.6736   19.0677 O   0  0  0  0  0  0  0  0  0  0  0  0
    6.4470    4.5850   22.2321 C   0  0  0  0  0  0  0  0  0  0  0  0
    8.4619    6.9895   22.2968 C   0  0  0  0  0  0  0  0  0  0  0  0
   12.2747    7.5102   20.0420 C   0  0  0  0  0  0  0  0  0  0  0  0
   14.2544    6.2142   19.4191 C   0  0  0  0  0  0  0  0  0  0  0  0
   13.0695    6.3705   20.0375 N   0  0  0  0  0  0  0  0  0  0  0  0
    9.1913    8.0876   21.8361 N   0  0  0  0  0  0  0  0  0  0  0  0
   10.4739    9.4813   20.2889 C   0  0  0  0  0  0  0  0  0  0  0  0
    7.5551    7.1270   23.1200 O   0  0  0  0  0  0  0  0  0  0  0  0
  1 11  4  0
  1 21  4  0
  2  4  1  0
  2  8  1  0
  2 11  1  0
  3 10  4  0
  3 14  4  0
  4  5  1  0
  4 18  2  0
  6 12  1  0
  6 17  4  0
  6 23  4  0
  7  9  1  0
  7 13  4  0
  7 19  4  0
  9 20  1  0
 10 19  4  0
 11 25  4  0
 13 14  4  0
 15 16  4  0
 15 17  4  0
 15 21  4  0
 16 24  1  0
 16 25  4  0
 20 24  1  0
 20 26  2  0
 21 23  4  0
 22 23  1  0
M  END
$$$$

 Created by Python create_sdf_string function

 26 28  0  0  0  0  0  0  0  0999 V2000
   12.4616    8.6700   19.4180 N   0  0  0  0  0  0  0  0  0  0  0  0
   11.8329   10.8148   18.6769 N   0  0  0  0  0  0  0  0  0  0  0  0
    6.1021    2.5564   21.0678 C   0  0  0  0  0  0  0  0  0  0  0  0
   10.9097   11.8051   18.4804 C   0  0  0  0  0  0  0  0  0  0  0  0
   11.2280   12.9135   17.5669 C   0  0  0  0  0  0  0  0  0  0  0  0
   12.3782    5.4231   20.7777 C   0  0  0  0  0  0  0  0  0  0  0  0
    7.7365    4.6508   21.6987 C   0  0  0  0  0  0  0  0  0  0  0  0
   13.0186   11.0102   18.0020 C   0  0  0  0  0  0  0  0  0  0  0  0
    8.6628    5.7088   21.8871 N   0  0  0  0  0  0  0  0  0  0  0  0
    5.6516    3.5258   21.9140 C   0  0  0  0  0  0  0  0  0  0  0  0
   11.5863    9.6815   19.4539 C   0  0  0  0  0  0  0  0  0  0  0  0
   12.9648    4.1543   20.9205 C   0  0  0  0  0  0  0  0  0  0  0  0
    8.2089    3.6265   20.8929 C   0  0  0  0  0  0  0  0  0  0  0  0
    7.3827    2.5724   20.5432 C   0  0  0  0  0  0  0  0  0  0  0  0
   11.1529    7.2750   20.8025 C   0  0  0  0  0  0  0  0  0  0  0  0
   10.2573    8.3215   20.9827 C   0  0  0  0  0  0  0  0  0  0  0  0
   11.1606    5.9378   21.2366 N   0  0  0  0  0  0  0  0  0  0  0  0
    9.8932   11.6736   19.0677 O   0  0  0  0  0  0  0  0  0  0  0  0
    6.4470    4.5850   22.2321 C   0  0  0  0  0  0  0  0  0  0  0  0
    8.4619    6.9895   22.2968 C   0  0  0  0  0  0  0  0  0  0  0  0
   12.2747    7.5102   20.0420 C   0  0  0  0  0  0  0  0  0  0  0  0
   14.2544    6.2142   19.4191 C   0  0  0  0  0  0  0  0  0  0  0  0
   13.0695    6.3705   20.0375 N   0  0  0  0  0  0  0  0  0  0  0  0
    9.1913    8.0876   21.8361 N   0  0  0  0  0  0  0  0  0  0  0  0
   10.4739    9.4813   20.2889 C   0  0  0  0  0  0  0  0  0  0  0  0
    7.5551    7.1270   23.1200 O   0  0  0  0  0  0  0  0  0  0  0  0
  1 11  4  0
  1 21  4  0
  2  4  1  0
  2  8  1  0
  2 11  1  0
  3 10  4  0
  3 14  4  0
  4  5  1  0
  4 18  2  0
  6 12  1  0
  6 17  4  0
  6 23  4  0
  7  9  1  0
  7 13  4  0
  7 19  4  0
  9 20  1  0
 10 19  4  0
 11 25  4  0
 13 14  4  0
 15 16  4  0
 15 17  4  0
 15 21  4  0
 16 24  1  0
 16 25  4  0
 20 24  1  0
 20 26  2  0
 21 23  4  0
 22 23  1  0
M  END
$$$$

 Created by Python create_sdf_string function

 26 28  0  0  0  0  0  0  0  0999 V2000
   12.4616    8.6700   19.4180 N   0  0  0  0  0  0  0  0  0  0  0  0
   11.8329   10.8148   18.6769 N   0  0  0  0  0  0  0  0  0  0  0  0
    6.1021    2.5564   21.0678 C   0  0  0  0  0  0  0  0  0  0  0  0
   10.9097   11.8051   18.4804 C   0  0  0  0  0  0  0  0  0  0  0  0
   11.2280   12.9135   17.5669 C   0  0  0  0  0  0  0  0  0  0  0  0
   12.3782    5.4231   20.7777 C   0  0  0  0  0  0  0  0  0  0  0  0
    7.7365    4.6508   21.6987 C   0  0  0  0  0  0  0  0  0  0  0  0
   13.0186   11.0102   18.0020 C   0  0  0  0  0  0  0  0  0  0  0  0
    8.6628    5.7088   21.8871 N   0  0  0  0  0  0  0  0  0  0  0  0
    5.6516    3.5258   21.9140 C   0  0  0  0  0  0  0  0  0  0  0  0
   11.5863    9.6815   19.4539 C   0  0  0  0  0  0  0  0  0  0  0  0
   12.9648    4.1543   20.9205 C   0  0  0  0  0  0  0  0  0  0  0  0
    8.2089    3.6265   20.8929 C   0  0  0  0  0  0  0  0  0  0  0  0
    7.3827    2.5724   20.5432 C   0  0  0  0  0  0  0  0  0  0  0  0
   11.1529    7.2750   20.8025 C   0  0  0  0  0  0  0  0  0  0  0  0
   10.2573    8.3215   20.9827 C   0  0  0  0  0  0  0  0  0  0  0  0
   11.1606    5.9378   21.2366 N   0  0  0  0  0  0  0  0  0  0  0  0
    9.8932   11.6736   19.0677 O   0  0  0  0  0  0  0  0  0  0  0  0
    6.4470    4.5850   22.2321 C   0  0  0  0  0  0  0  0  0  0  0  0
    8.4619    6.9895   22.2968 C   0  0  0  0  0  0  0  0  0  0  0  0
   12.2747    7.5102   20.0420 C   0  0  0  0  0  0  0  0  0  0  0  0
   14.2544    6.2142   19.4191 C   0  0  0  0  0  0  0  0  0  0  0  0
   13.0695    6.3705   20.0375 N   0  0  0  0  0  0  0  0  0  0  0  0
    9.1913    8.0876   21.8361 N   0  0  0  0  0  0  0  0  0  0  0  0
   10.4739    9.4813   20.2889 C   0  0  0  0  0  0  0  0  0  0  0  0
    7.5551    7.1270   23.1200 O   0  0  0  0  0  0  0  0  0  0  0  0
  1 11  4  0
  1 21  4  0
  2  4  1  0
  2  8  1  0
  2 11  1  0
  3 10  4  0
  3 14  4  0
  4  5  1  0
  4 18  2  0
  6 12  1  0
  6 17  4  0
  6 23  4  0
  7  9  1  0
  7 13  4  0
  7 19  4  0
  9 20  1  0
 10 19  4  0
 11 25  4  0
 13 14  4  0
 15 16  4  0
 15 17  4  0
 15 21  4  0
 16 24  1  0
 16 25  4  0
 20 24  1  0
 20 26  2  0
 21 23  4  0
 22 23  1  0
M  END
$$$$

 Created by Python create_sdf_string function

 26 28  0  0  0  0  0  0  0  0999 V2000
   12.4616    8.6700   19.4180 N   0  0  0  0  0  0  0  0  0  0  0  0
   11.8329   10.8148   18.6769 N   0  0  0  0  0  0  0  0  0  0  0  0
    6.1021    2.5564   21.0678 C   0  0  0  0  0  0  0  0  0  0  0  0
   10.9097   11.8051   18.4804 C   0  0  0  0  0  0  0  0  0  0  0  0
   11.2280   12.9135   17.5669 C   0  0  0  0  0  0  0  0  0  0  0  0
   12.3782    5.4231   20.7777 C   0  0  0  0  0  0  0  0  0  0  0  0
    7.7365    4.6508   21.6987 C   0  0  0  0  0  0  0  0  0  0  0  0
   13.0186   11.0102   18.0020 C   0  0  0  0  0  0  0  0  0  0  0  0
    8.6628    5.7088   21.8871 N   0  0  0  0  0  0  0  0  0  0  0  0
    5.6516    3.5258   21.9140 C   0  0  0  0  0  0  0  0  0  0  0  0
   11.5863    9.6815   19.4539 C   0  0  0  0  0  0  0  0  0  0  0  0
   12.9648    4.1543   20.9205 C   0  0  0  0  0  0  0  0  0  0  0  0
    8.2089    3.6265   20.8929 C   0  0  0  0  0  0  0  0  0  0  0  0
    7.3827    2.5724   20.5432 C   0  0  0  0  0  0  0  0  0  0  0  0
   11.1529    7.2750   20.8025 C   0  0  0  0  0  0  0  0  0  0  0  0
   10.2573    8.3215   20.9827 C   0  0  0  0  0  0  0  0  0  0  0  0
   11.1606    5.9378   21.2366 N   0  0  0  0  0  0  0  0  0  0  0  0
    9.8932   11.6736   19.0677 O   0  0  0  0  0  0  0  0  0  0  0  0
    6.4470    4.5850   22.2321 C   0  0  0  0  0  0  0  0  0  0  0  0
    8.4619    6.9895   22.2968 C   0  0  0  0  0  0  0  0  0  0  0  0
   12.2747    7.5102   20.0420 C   0  0  0  0  0  0  0  0  0  0  0  0
   14.2544    6.2142   19.4191 C   0  0  0  0  0  0  0  0  0  0  0  0
   13.0695    6.3705   20.0375 N   0  0  0  0  0  0  0  0  0  0  0  0
    9.1913    8.0876   21.8361 N   0  0  0  0  0  0  0  0  0  0  0  0
   10.4739    9.4813   20.2889 C   0  0  0  0  0  0  0  0  0  0  0  0
    7.5551    7.1270   23.1200 O   0  0  0  0  0  0  0  0  0  0  0  0
  1 11  4  0
  1 21  4  0
  2  4  1  0
  2  8  1  0
  2 11  1  0
  3 10  4  0
  3 14  4  0
  4  5  1  0
  4 18  2  0
  6 12  1  0
  6 17  4  0
  6 23  4  0
  7  9  1  0
  7 13  4  0
  7 19  4  0
  9 20  1  0
 10 19  4  0
 11 25  4  0
 13 14  4  0
 15 16  4  0
 15 17  4  0
 15 21  4  0
 16 24  1  0
 16 25  4  0
 20 24  1  0
 20 26  2  0
 21 23  4  0
 22 23  1  0
M  END
$$$$

 Created by Python create_sdf_string function

 26 28  0  0  0  0  0  0  0  0999 V2000
   12.4616    8.6700   19.4180 N   0  0  0  0  0  0  0  0  0  0  0  0
   11.8329   10.8148   18.6769 N   0  0  0  0  0  0  0  0  0  0  0  0
    6.1021    2.5564   21.0678 C   0  0  0  0  0  0  0  0  0  0  0  0
   10.9097   11.8051   18.4804 C   0  0  0  0  0  0  0  0  0  0  0  0
   11.2280   12.9135   17.5669 C   0  0  0  0  0  0  0  0  0  0  0  0
   12.3782    5.4231   20.7777 C   0  0  0  0  0  0  0  0  0  0  0  0
    7.7365    4.6508   21.6987 C   0  0  0  0  0  0  0  0  0  0  0  0
   13.0186   11.0102   18.0020 C   0  0  0  0  0  0  0  0  0  0  0  0
    8.6628    5.7088   21.8871 N   0  0  0  0  0  0  0  0  0  0  0  0
    5.6516    3.5258   21.9140 C   0  0  0  0  0  0  0  0  0  0  0  0
   11.5863    9.6815   19.4539 C   0  0  0  0  0  0  0  0  0  0  0  0
   12.9648    4.1543   20.9205 C   0  0  0  0  0  0  0  0  0  0  0  0
    8.2089    3.6265   20.8929 C   0  0  0  0  0  0  0  0  0  0  0  0
    7.3827    2.5724   20.5432 C   0  0  0  0  0  0  0  0  0  0  0  0
   11.1529    7.2750   20.8025 C   0  0  0  0  0  0  0  0  0  0  0  0
   10.2573    8.3215   20.9827 C   0  0  0  0  0  0  0  0  0  0  0  0
   11.1606    5.9378   21.2366 N   0  0  0  0  0  0  0  0  0  0  0  0
    9.8932   11.6736   19.0677 O   0  0  0  0  0  0  0  0  0  0  0  0
    6.4470    4.5850   22.2321 C   0  0  0  0  0  0  0  0  0  0  0  0
    8.4619    6.9895   22.2968 C   0  0  0  0  0  0  0  0  0  0  0  0
   12.2747    7.5102   20.0420 C   0  0  0  0  0  0  0  0  0  0  0  0
   14.2544    6.2142   19.4191 C   0  0  0  0  0  0  0  0  0  0  0  0
   13.0695    6.3705   20.0375 N   0  0  0  0  0  0  0  0  0  0  0  0
    9.1913    8.0876   21.8361 N   0  0  0  0  0  0  0  0  0  0  0  0
   10.4739    9.4813   20.2889 C   0  0  0  0  0  0  0  0  0  0  0  0
    7.5551    7.1270   23.1200 O   0  0  0  0  0  0  0  0  0  0  0  0
  1 11  4  0
  1 21  4  0
  2  4  1  0
  2  8  1  0
  2 11  1  0
  3 10  4  0
  3 14  4  0
  4  5  1  0
  4 18  2  0
  6 12  1  0
  6 17  4  0
  6 23  4  0
  7  9  1  0
  7 13  4  0
  7 19  4  0
  9 20  1  0
 10 19  4  0
 11 25  4  0
 13 14  4  0
 15 16  4  0
 15 17  4  0
 15 21  4  0
 16 24  1  0
 16 25  4  0
 20 24  1  0
 20 26  2  0
 21 23  4  0
 22 23  1  0
M  END
$$$$

 Created by Python create_sdf_string function

 26 28  0  0  0  0  0  0  0  0999 V2000
   12.4616    8.6700   19.4180 N   0  0  0  0  0  0  0  0  0  0  0  0
   11.8329   10.8148   18.6769 N   0  0  0  0  0  0  0  0  0  0  0  0
    6.1021    2.5564   21.0678 C   0  0  0  0  0  0  0  0  0  0  0  0
   10.9097   11.8051   18.4804 C   0  0  0  0  0  0  0  0  0  0  0  0
   11.2280   12.9135   17.5669 C   0  0  0  0  0  0  0  0  0  0  0  0
   12.3782    5.4231   20.7777 C   0  0  0  0  0  0  0  0  0  0  0  0
    7.7365    4.6508   21.6987 C   0  0  0  0  0  0  0  0  0  0  0  0
   13.0186   11.0102   18.0020 C   0  0  0  0  0  0  0  0  0  0  0  0
    8.6628    5.7088   21.8871 N   0  0  0  0  0  0  0  0  0  0  0  0
    5.6516    3.5258   21.9140 C   0  0  0  0  0  0  0  0  0  0  0  0
   11.5863    9.6815   19.4539 C   0  0  0  0  0  0  0  0  0  0  0  0
   12.9648    4.1543   20.9205 C   0  0  0  0  0  0  0  0  0  0  0  0
    8.2089    3.6265   20.8929 C   0  0  0  0  0  0  0  0  0  0  0  0
    7.3827    2.5724   20.5432 C   0  0  0  0  0  0  0  0  0  0  0  0
   11.1529    7.2750   20.8025 C   0  0  0  0  0  0  0  0  0  0  0  0
   10.2573    8.3215   20.9827 C   0  0  0  0  0  0  0  0  0  0  0  0
   11.1606    5.9378   21.2366 N   0  0  0  0  0  0  0  0  0  0  0  0
    9.8932   11.6736   19.0677 O   0  0  0  0  0  0  0  0  0  0  0  0
    6.4470    4.5850   22.2321 C   0  0  0  0  0  0  0  0  0  0  0  0
    8.4619    6.9895   22.2968 C   0  0  0  0  0  0  0  0  0  0  0  0
   12.2747    7.5102   20.0420 C   0  0  0  0  0  0  0  0  0  0  0  0
   14.2544    6.2142   19.4191 C   0  0  0  0  0  0  0  0  0  0  0  0
   13.0695    6.3705   20.0375 N   0  0  0  0  0  0  0  0  0  0  0  0
    9.1913    8.0876   21.8361 N   0  0  0  0  0  0  0  0  0  0  0  0
   10.4739    9.4813   20.2889 C   0  0  0  0  0  0  0  0  0  0  0  0
    7.5551    7.1270   23.1200 O   0  0  0  0  0  0  0  0  0  0  0  0
  1 11  4  0
  1 21  4  0
  2  4  1  0
  2  8  1  0
  2 11  1  0
  3 10  4  0
  3 14  4  0
  4  5  1  0
  4 18  2  0
  6 12  1  0
  6 17  4  0
  6 23  4  0
  7  9  1  0
  7 13  4  0
  7 19  4  0
  9 20  1  0
 10 19  4  0
 11 25  4  0
 13 14  4  0
 15 16  4  0
 15 17  4  0
 15 21  4  0
 16 24  1  0
 16 25  4  0
 20 24  1  0
 20 26  2  0
 21 23  4  0
 22 23  1  0
M  END
$$$$

 Created by Python create_sdf_string function

 26 28  0  0  0  0  0  0  0  0999 V2000
   12.4616    8.6700   19.4180 N   0  0  0  0  0  0  0  0  0  0  0  0
   11.8329   10.8148   18.6769 N   0  0  0  0  0  0  0  0  0  0  0  0
    6.1021    2.5564   21.0678 C   0  0  0  0  0  0  0  0  0  0  0  0
   10.9097   11.8051   18.4804 C   0  0  0  0  0  0  0  0  0  0  0  0
   11.2280   12.9135   17.5669 C   0  0  0  0  0  0  0  0  0  0  0  0
   12.3782    5.4231   20.7777 C   0  0  0  0  0  0  0  0  0  0  0  0
    7.7365    4.6508   21.6987 C   0  0  0  0  0  0  0  0  0  0  0  0
   13.0186   11.0102   18.0020 C   0  0  0  0  0  0  0  0  0  0  0  0
    8.6628    5.7088   21.8871 N   0  0  0  0  0  0  0  0  0  0  0  0
    5.6516    3.5258   21.9140 C   0  0  0  0  0  0  0  0  0  0  0  0
   11.5863    9.6815   19.4539 C   0  0  0  0  0  0  0  0  0  0  0  0
   12.9648    4.1543   20.9205 C   0  0  0  0  0  0  0  0  0  0  0  0
    8.2089    3.6265   20.8929 C   0  0  0  0  0  0  0  0  0  0  0  0
    7.3827    2.5724   20.5432 C   0  0  0  0  0  0  0  0  0  0  0  0
   11.1529    7.2750   20.8025 C   0  0  0  0  0  0  0  0  0  0  0  0
   10.2573    8.3215   20.9827 C   0  0  0  0  0  0  0  0  0  0  0  0
   11.1606    5.9378   21.2366 N   0  0  0  0  0  0  0  0  0  0  0  0
    9.8932   11.6736   19.0677 O   0  0  0  0  0  0  0  0  0  0  0  0
    6.4470    4.5850   22.2321 C   0  0  0  0  0  0  0  0  0  0  0  0
    8.4619    6.9895   22.2968 C   0  0  0  0  0  0  0  0  0  0  0  0
   12.2747    7.5102   20.0420 C   0  0  0  0  0  0  0  0  0  0  0  0
   14.2544    6.2142   19.4191 C   0  0  0  0  0  0  0  0  0  0  0  0
   13.0695    6.3705   20.0375 N   0  0  0  0  0  0  0  0  0  0  0  0
    9.1913    8.0876   21.8361 N   0  0  0  0  0  0  0  0  0  0  0  0
   10.4739    9.4813   20.2889 C   0  0  0  0  0  0  0  0  0  0  0  0
    7.5551    7.1270   23.1200 O   0  0  0  0  0  0  0  0  0  0  0  0
  1 11  4  0
  1 21  4  0
  2  4  1  0
  2  8  1  0
  2 11  1  0
  3 10  4  0
  3 14  4  0
  4  5  1  0
  4 18  2  0
  6 12  1  0
  6 17  4  0
  6 23  4  0
  7  9  1  0
  7 13  4  0
  7 19  4  0
  9 20  1  0
 10 19  4  0
 11 25  4  0
 13 14  4  0
 15 16  4  0
 15 17  4  0
 15 21  4  0
 16 24  1  0
 16 25  4  0
 20 24  1  0
 20 26  2  0
 21 23  4  0
 22 23  1  0
M  END
$$$$

 Created by Python create_sdf_string function

 26 28  0  0  0  0  0  0  0  0999 V2000
   12.4616    8.6700   19.4180 N   0  0  0  0  0  0  0  0  0  0  0  0
   11.8329   10.8148   18.6769 N   0  0  0  0  0  0  0  0  0  0  0  0
    6.1021    2.5564   21.0678 C   0  0  0  0  0  0  0  0  0  0  0  0
   10.9097   11.8051   18.4804 C   0  0  0  0  0  0  0  0  0  0  0  0
   11.2280   12.9135   17.5669 C   0  0  0  0  0  0  0  0  0  0  0  0
   12.3782    5.4231   20.7777 C   0  0  0  0  0  0  0  0  0  0  0  0
    7.7365    4.6508   21.6987 C   0  0  0  0  0  0  0  0  0  0  0  0
   13.0186   11.0102   18.0020 C   0  0  0  0  0  0  0  0  0  0  0  0
    8.6628    5.7088   21.8871 N   0  0  0  0  0  0  0  0  0  0  0  0
    5.6516    3.5258   21.9140 C   0  0  0  0  0  0  0  0  0  0  0  0
   11.5863    9.6815   19.4539 C   0  0  0  0  0  0  0  0  0  0  0  0
   12.9648    4.1543   20.9205 C   0  0  0  0  0  0  0  0  0  0  0  0
    8.2089    3.6265   20.8929 C   0  0  0  0  0  0  0  0  0  0  0  0
    7.3827    2.5724   20.5432 C   0  0  0  0  0  0  0  0  0  0  0  0
   11.1529    7.2750   20.8025 C   0  0  0  0  0  0  0  0  0  0  0  0
   10.2573    8.3215   20.9827 C   0  0  0  0  0  0  0  0  0  0  0  0
   11.1606    5.9378   21.2366 N   0  0  0  0  0  0  0  0  0  0  0  0
    9.8932   11.6736   19.0677 O   0  0  0  0  0  0  0  0  0  0  0  0
    6.4470    4.5850   22.2321 C   0  0  0  0  0  0  0  0  0  0  0  0
    8.4619    6.9895   22.2968 C   0  0  0  0  0  0  0  0  0  0  0  0
   12.2747    7.5102   20.0420 C   0  0  0  0  0  0  0  0  0  0  0  0
   14.2544    6.2142   19.4191 C   0  0  0  0  0  0  0  0  0  0  0  0
   13.0695    6.3705   20.0375 N   0  0  0  0  0  0  0  0  0  0  0  0
    9.1913    8.0876   21.8361 N   0  0  0  0  0  0  0  0  0  0  0  0
   10.4739    9.4813   20.2889 C   0  0  0  0  0  0  0  0  0  0  0  0
    7.5551    7.1270   23.1200 O   0  0  0  0  0  0  0  0  0  0  0  0
  1 11  4  0
  1 21  4  0
  2  4  1  0
  2  8  1  0
  2 11  1  0
  3 10  4  0
  3 14  4  0
  4  5  1  0
  4 18  2  0
  6 12  1  0
  6 17  4  0
  6 23  4  0
  7  9  1  0
  7 13  4  0
  7 19  4  0
  9 20  1  0
 10 19  4  0
 11 25  4  0
 13 14  4  0
 15 16  4  0
 15 17  4  0
 15 21  4  0
 16 24  1  0
 16 25  4  0
 20 24  1  0
 20 26  2  0
 21 23  4  0
 22 23  1  0
M  END
$$$$

 Created by Python create_sdf_string function

 26 28  0  0  0  0  0  0  0  0999 V2000
   12.4616    8.6700   19.4180 N   0  0  0  0  0  0  0  0  0  0  0  0
   11.8329   10.8148   18.6769 N   0  0  0  0  0  0  0  0  0  0  0  0
    6.1021    2.5564   21.0678 C   0  0  0  0  0  0  0  0  0  0  0  0
   10.9097   11.8051   18.4804 C   0  0  0  0  0  0  0  0  0  0  0  0
   11.2280   12.9135   17.5669 C   0  0  0  0  0  0  0  0  0  0  0  0
   12.3782    5.4231   20.7777 C   0  0  0  0  0  0  0  0  0  0  0  0
    7.7365    4.6508   21.6987 C   0  0  0  0  0  0  0  0  0  0  0  0
   13.0186   11.0102   18.0020 C   0  0  0  0  0  0  0  0  0  0  0  0
    8.6628    5.7088   21.8871 N   0  0  0  0  0  0  0  0  0  0  0  0
    5.6516    3.5258   21.9140 C   0  0  0  0  0  0  0  0  0  0  0  0
   11.5863    9.6815   19.4539 C   0  0  0  0  0  0  0  0  0  0  0  0
   12.9648    4.1543   20.9205 C   0  0  0  0  0  0  0  0  0  0  0  0
    8.2089    3.6265   20.8929 C   0  0  0  0  0  0  0  0  0  0  0  0
    7.3827    2.5724   20.5432 C   0  0  0  0  0  0  0  0  0  0  0  0
   11.1529    7.2750   20.8025 C   0  0  0  0  0  0  0  0  0  0  0  0
   10.2573    8.3215   20.9827 C   0  0  0  0  0  0  0  0  0  0  0  0
   11.1606    5.9378   21.2366 N   0  0  0  0  0  0  0  0  0  0  0  0
    9.8932   11.6736   19.0677 O   0  0  0  0  0  0  0  0  0  0  0  0
    6.4470    4.5850   22.2321 C   0  0  0  0  0  0  0  0  0  0  0  0
    8.4619    6.9895   22.2968 C   0  0  0  0  0  0  0  0  0  0  0  0
   12.2747    7.5102   20.0420 C   0  0  0  0  0  0  0  0  0  0  0  0
   14.2544    6.2142   19.4191 C   0  0  0  0  0  0  0  0  0  0  0  0
   13.0695    6.3705   20.0375 N   0  0  0  0  0  0  0  0  0  0  0  0
    9.1913    8.0876   21.8361 N   0  0  0  0  0  0  0  0  0  0  0  0
   10.4739    9.4813   20.2889 C   0  0  0  0  0  0  0  0  0  0  0  0
    7.5551    7.1270   23.1200 O   0  0  0  0  0  0  0  0  0  0  0  0
  1 11  4  0
  1 21  4  0
  2  4  1  0
  2  8  1  0
  2 11  1  0
  3 10  4  0
  3 14  4  0
  4  5  1  0
  4 18  2  0
  6 12  1  0
  6 17  4  0
  6 23  4  0
  7  9  1  0
  7 13  4  0
  7 19  4  0
  9 20  1  0
 10 19  4  0
 11 25  4  0
 13 14  4  0
 15 16  4  0
 15 17  4  0
 15 21  4  0
 16 24  1  0
 16 25  4  0
 20 24  1  0
 20 26  2  0
 21 23  4  0
 22 23  1  0
M  END
$$$$

 Created by Python create_sdf_string function

 26 28  0  0  0  0  0  0  0  0999 V2000
   12.4616    8.6700   19.4180 N   0  0  0  0  0  0  0  0  0  0  0  0
   11.8329   10.8148   18.6769 N   0  0  0  0  0  0  0  0  0  0  0  0
    6.1021    2.5564   21.0678 C   0  0  0  0  0  0  0  0  0  0  0  0
   10.9097   11.8051   18.4804 C   0  0  0  0  0  0  0  0  0  0  0  0
   11.2280   12.9135   17.5669 C   0  0  0  0  0  0  0  0  0  0  0  0
   12.3782    5.4231   20.7777 C   0  0  0  0  0  0  0  0  0  0  0  0
    7.7365    4.6508   21.6987 C   0  0  0  0  0  0  0  0  0  0  0  0
   13.0186   11.0102   18.0020 C   0  0  0  0  0  0  0  0  0  0  0  0
    8.6628    5.7088   21.8871 N   0  0  0  0  0  0  0  0  0  0  0  0
    5.6516    3.5258   21.9140 C   0  0  0  0  0  0  0  0  0  0  0  0
   11.5863    9.6815   19.4539 C   0  0  0  0  0  0  0  0  0  0  0  0
   12.9648    4.1543   20.9205 C   0  0  0  0  0  0  0  0  0  0  0  0
    8.2089    3.6265   20.8929 C   0  0  0  0  0  0  0  0  0  0  0  0
    7.3827    2.5724   20.5432 C   0  0  0  0  0  0  0  0  0  0  0  0
   11.1529    7.2750   20.8025 C   0  0  0  0  0  0  0  0  0  0  0  0
   10.2573    8.3215   20.9827 C   0  0  0  0  0  0  0  0  0  0  0  0
   11.1606    5.9378   21.2366 N   0  0  0  0  0  0  0  0  0  0  0  0
    9.8932   11.6736   19.0677 O   0  0  0  0  0  0  0  0  0  0  0  0
    6.4470    4.5850   22.2321 C   0  0  0  0  0  0  0  0  0  0  0  0
    8.4619    6.9895   22.2968 C   0  0  0  0  0  0  0  0  0  0  0  0
   12.2747    7.5102   20.0420 C   0  0  0  0  0  0  0  0  0  0  0  0
   14.2544    6.2142   19.4191 C   0  0  0  0  0  0  0  0  0  0  0  0
   13.0695    6.3705   20.0375 N   0  0  0  0  0  0  0  0  0  0  0  0
    9.1913    8.0876   21.8361 N   0  0  0  0  0  0  0  0  0  0  0  0
   10.4739    9.4813   20.2889 C   0  0  0  0  0  0  0  0  0  0  0  0
    7.5551    7.1270   23.1200 O   0  0  0  0  0  0  0  0  0  0  0  0
  1 11  4  0
  1 21  4  0
  2  4  1  0
  2  8  1  0
  2 11  1  0
  3 10  4  0
  3 14  4  0
  4  5  1  0
  4 18  2  0
  6 12  1  0
  6 17  4  0
  6 23  4  0
  7  9  1  0
  7 13  4  0
  7 19  4  0
  9 20  1  0
 10 19  4  0
 11 25  4  0
 13 14  4  0
 15 16  4  0
 15 17  4  0
 15 21  4  0
 16 24  1  0
 16 25  4  0
 20 24  1  0
 20 26  2  0
 21 23  4  0
 22 23  1  0
M  END
$$$$

 Created by Python create_sdf_string function

 26 28  0  0  0  0  0  0  0  0999 V2000
   12.4616    8.6700   19.4180 N   0  0  0  0  0  0  0  0  0  0  0  0
   11.8329   10.8148   18.6769 N   0  0  0  0  0  0  0  0  0  0  0  0
    6.1021    2.5564   21.0678 C   0  0  0  0  0  0  0  0  0  0  0  0
   10.9097   11.8051   18.4804 C   0  0  0  0  0  0  0  0  0  0  0  0
   11.2280   12.9135   17.5669 C   0  0  0  0  0  0  0  0  0  0  0  0
   12.3782    5.4231   20.7777 C   0  0  0  0  0  0  0  0  0  0  0  0
    7.7365    4.6508   21.6987 C   0  0  0  0  0  0  0  0  0  0  0  0
   13.0186   11.0102   18.0020 C   0  0  0  0  0  0  0  0  0  0  0  0
    8.6628    5.7088   21.8871 N   0  0  0  0  0  0  0  0  0  0  0  0
    5.6516    3.5258   21.9140 C   0  0  0  0  0  0  0  0  0  0  0  0
   11.5863    9.6815   19.4539 C   0  0  0  0  0  0  0  0  0  0  0  0
   12.9648    4.1543   20.9205 C   0  0  0  0  0  0  0  0  0  0  0  0
    8.2089    3.6265   20.8929 C   0  0  0  0  0  0  0  0  0  0  0  0
    7.3827    2.5724   20.5432 C   0  0  0  0  0  0  0  0  0  0  0  0
   11.1529    7.2750   20.8025 C   0  0  0  0  0  0  0  0  0  0  0  0
   10.2573    8.3215   20.9827 C   0  0  0  0  0  0  0  0  0  0  0  0
   11.1606    5.9378   21.2366 N   0  0  0  0  0  0  0  0  0  0  0  0
    9.8932   11.6736   19.0677 O   0  0  0  0  0  0  0  0  0  0  0  0
    6.4470    4.5850   22.2321 C   0  0  0  0  0  0  0  0  0  0  0  0
    8.4619    6.9895   22.2968 C   0  0  0  0  0  0  0  0  0  0  0  0
   12.2747    7.5102   20.0420 C   0  0  0  0  0  0  0  0  0  0  0  0
   14.2544    6.2142   19.4191 C   0  0  0  0  0  0  0  0  0  0  0  0
   13.0695    6.3705   20.0375 N   0  0  0  0  0  0  0  0  0  0  0  0
    9.1913    8.0876   21.8361 N   0  0  0  0  0  0  0  0  0  0  0  0
   10.4739    9.4813   20.2889 C   0  0  0  0  0  0  0  0  0  0  0  0
    7.5551    7.1270   23.1200 O   0  0  0  0  0  0  0  0  0  0  0  0
  1 11  4  0
  1 21  4  0
  2  4  1  0
  2  8  1  0
  2 11  1  0
  3 10  4  0
  3 14  4  0
  4  5  1  0
  4 18  2  0
  6 12  1  0
  6 17  4  0
  6 23  4  0
  7  9  1  0
  7 13  4  0
  7 19  4  0
  9 20  1  0
 10 19  4  0
 11 25  4  0
 13 14  4  0
 15 16  4  0
 15 17  4  0
 15 21  4  0
 16 24  1  0
 16 25  4  0
 20 24  1  0
 20 26  2  0
 21 23  4  0
 22 23  1  0
M  END
$$$$

 Created by Python create_sdf_string function

 26 28  0  0  0  0  0  0  0  0999 V2000
   12.4616    8.6700   19.4180 N   0  0  0  0  0  0  0  0  0  0  0  0
   11.8329   10.8148   18.6769 N   0  0  0  0  0  0  0  0  0  0  0  0
    6.1021    2.5564   21.0678 C   0  0  0  0  0  0  0  0  0  0  0  0
   10.9097   11.8051   18.4804 C   0  0  0  0  0  0  0  0  0  0  0  0
   11.2280   12.9135   17.5669 C   0  0  0  0  0  0  0  0  0  0  0  0
   12.3782    5.4231   20.7777 C   0  0  0  0  0  0  0  0  0  0  0  0
    7.7365    4.6508   21.6987 C   0  0  0  0  0  0  0  0  0  0  0  0
   13.0186   11.0102   18.0020 C   0  0  0  0  0  0  0  0  0  0  0  0
    8.6628    5.7088   21.8871 N   0  0  0  0  0  0  0  0  0  0  0  0
    5.6516    3.5258   21.9140 C   0  0  0  0  0  0  0  0  0  0  0  0
   11.5863    9.6815   19.4539 C   0  0  0  0  0  0  0  0  0  0  0  0
   12.9648    4.1543   20.9205 C   0  0  0  0  0  0  0  0  0  0  0  0
    8.2089    3.6265   20.8929 C   0  0  0  0  0  0  0  0  0  0  0  0
    7.3827    2.5724   20.5432 C   0  0  0  0  0  0  0  0  0  0  0  0
   11.1529    7.2750   20.8025 C   0  0  0  0  0  0  0  0  0  0  0  0
   10.2573    8.3215   20.9827 C   0  0  0  0  0  0  0  0  0  0  0  0
   11.1606    5.9378   21.2366 N   0  0  0  0  0  0  0  0  0  0  0  0
    9.8932   11.6736   19.0677 O   0  0  0  0  0  0  0  0  0  0  0  0
    6.4470    4.5850   22.2321 C   0  0  0  0  0  0  0  0  0  0  0  0
    8.4619    6.9895   22.2968 C   0  0  0  0  0  0  0  0  0  0  0  0
   12.2747    7.5102   20.0420 C   0  0  0  0  0  0  0  0  0  0  0  0
   14.2544    6.2142   19.4191 C   0  0  0  0  0  0  0  0  0  0  0  0
   13.0695    6.3705   20.0375 N   0  0  0  0  0  0  0  0  0  0  0  0
    9.1913    8.0876   21.8361 N   0  0  0  0  0  0  0  0  0  0  0  0
   10.4739    9.4813   20.2889 C   0  0  0  0  0  0  0  0  0  0  0  0
    7.5551    7.1270   23.1200 O   0  0  0  0  0  0  0  0  0  0  0  0
  1 11  4  0
  1 21  4  0
  2  4  1  0
  2  8  1  0
  2 11  1  0
  3 10  4  0
  3 14  4  0
  4  5  1  0
  4 18  2  0
  6 12  1  0
  6 17  4  0
  6 23  4  0
  7  9  1  0
  7 13  4  0
  7 19  4  0
  9 20  1  0
 10 19  4  0
 11 25  4  0
 13 14  4  0
 15 16  4  0
 15 17  4  0
 15 21  4  0
 16 24  1  0
 16 25  4  0
 20 24  1  0
 20 26  2  0
 21 23  4  0
 22 23  1  0
M  END
$$$$

 Created by Python create_sdf_string function

 26 28  0  0  0  0  0  0  0  0999 V2000
   12.4616    8.6700   19.4180 N   0  0  0  0  0  0  0  0  0  0  0  0
   11.8329   10.8148   18.6769 N   0  0  0  0  0  0  0  0  0  0  0  0
    6.1021    2.5564   21.0678 C   0  0  0  0  0  0  0  0  0  0  0  0
   10.9097   11.8051   18.4804 C   0  0  0  0  0  0  0  0  0  0  0  0
   11.2280   12.9135   17.5669 C   0  0  0  0  0  0  0  0  0  0  0  0
   12.3782    5.4231   20.7777 C   0  0  0  0  0  0  0  0  0  0  0  0
    7.7365    4.6508   21.6987 C   0  0  0  0  0  0  0  0  0  0  0  0
   13.0186   11.0102   18.0020 C   0  0  0  0  0  0  0  0  0  0  0  0
    8.6628    5.7088   21.8871 N   0  0  0  0  0  0  0  0  0  0  0  0
    5.6516    3.5258   21.9140 C   0  0  0  0  0  0  0  0  0  0  0  0
   11.5863    9.6815   19.4539 C   0  0  0  0  0  0  0  0  0  0  0  0
   12.9648    4.1543   20.9205 C   0  0  0  0  0  0  0  0  0  0  0  0
    8.2089    3.6265   20.8929 C   0  0  0  0  0  0  0  0  0  0  0  0
    7.3827    2.5724   20.5432 C   0  0  0  0  0  0  0  0  0  0  0  0
   11.1529    7.2750   20.8025 C   0  0  0  0  0  0  0  0  0  0  0  0
   10.2573    8.3215   20.9827 C   0  0  0  0  0  0  0  0  0  0  0  0
   11.1606    5.9378   21.2366 N   0  0  0  0  0  0  0  0  0  0  0  0
    9.8932   11.6736   19.0677 O   0  0  0  0  0  0  0  0  0  0  0  0
    6.4470    4.5850   22.2321 C   0  0  0  0  0  0  0  0  0  0  0  0
    8.4619    6.9895   22.2968 C   0  0  0  0  0  0  0  0  0  0  0  0
   12.2747    7.5102   20.0420 C   0  0  0  0  0  0  0  0  0  0  0  0
   14.2544    6.2142   19.4191 C   0  0  0  0  0  0  0  0  0  0  0  0
   13.0695    6.3705   20.0375 N   0  0  0  0  0  0  0  0  0  0  0  0
    9.1913    8.0876   21.8361 N   0  0  0  0  0  0  0  0  0  0  0  0
   10.4739    9.4813   20.2889 C   0  0  0  0  0  0  0  0  0  0  0  0
    7.5551    7.1270   23.1200 O   0  0  0  0  0  0  0  0  0  0  0  0
  1 11  4  0
  1 21  4  0
  2  4  1  0
  2  8  1  0
  2 11  1  0
  3 10  4  0
  3 14  4  0
  4  5  1  0
  4 18  2  0
  6 12  1  0
  6 17  4  0
  6 23  4  0
  7  9  1  0
  7 13  4  0
  7 19  4  0
  9 20  1  0
 10 19  4  0
 11 25  4  0
 13 14  4  0
 15 16  4  0
 15 17  4  0
 15 21  4  0
 16 24  1  0
 16 25  4  0
 20 24  1  0
 20 26  2  0
 21 23  4  0
 22 23  1  0
M  END
$$$$

 Created by Python create_sdf_string function

 26 28  0  0  0  0  0  0  0  0999 V2000
   12.4616    8.6700   19.4180 N   0  0  0  0  0  0  0  0  0  0  0  0
   11.8329   10.8148   18.6769 N   0  0  0  0  0  0  0  0  0  0  0  0
    6.1021    2.5564   21.0678 C   0  0  0  0  0  0  0  0  0  0  0  0
   10.9097   11.8051   18.4804 C   0  0  0  0  0  0  0  0  0  0  0  0
   11.2280   12.9135   17.5669 C   0  0  0  0  0  0  0  0  0  0  0  0
   12.3782    5.4231   20.7777 C   0  0  0  0  0  0  0  0  0  0  0  0
    7.7365    4.6508   21.6987 C   0  0  0  0  0  0  0  0  0  0  0  0
   13.0186   11.0102   18.0020 C   0  0  0  0  0  0  0  0  0  0  0  0
    8.6628    5.7088   21.8871 N   0  0  0  0  0  0  0  0  0  0  0  0
    5.6516    3.5258   21.9140 C   0  0  0  0  0  0  0  0  0  0  0  0
   11.5863    9.6815   19.4539 C   0  0  0  0  0  0  0  0  0  0  0  0
   12.9648    4.1543   20.9205 C   0  0  0  0  0  0  0  0  0  0  0  0
    8.2089    3.6265   20.8929 C   0  0  0  0  0  0  0  0  0  0  0  0
    7.3827    2.5724   20.5432 C   0  0  0  0  0  0  0  0  0  0  0  0
   11.1529    7.2750   20.8025 C   0  0  0  0  0  0  0  0  0  0  0  0
   10.2573    8.3215   20.9827 C   0  0  0  0  0  0  0  0  0  0  0  0
   11.1606    5.9378   21.2366 N   0  0  0  0  0  0  0  0  0  0  0  0
    9.8932   11.6736   19.0677 O   0  0  0  0  0  0  0  0  0  0  0  0
    6.4470    4.5850   22.2321 C   0  0  0  0  0  0  0  0  0  0  0  0
    8.4619    6.9895   22.2968 C   0  0  0  0  0  0  0  0  0  0  0  0
   12.2747    7.5102   20.0420 C   0  0  0  0  0  0  0  0  0  0  0  0
   14.2544    6.2142   19.4191 C   0  0  0  0  0  0  0  0  0  0  0  0
   13.0695    6.3705   20.0375 N   0  0  0  0  0  0  0  0  0  0  0  0
    9.1913    8.0876   21.8361 N   0  0  0  0  0  0  0  0  0  0  0  0
   10.4739    9.4813   20.2889 C   0  0  0  0  0  0  0  0  0  0  0  0
    7.5551    7.1270   23.1200 O   0  0  0  0  0  0  0  0  0  0  0  0
  1 11  4  0
  1 21  4  0
  2  4  1  0
  2  8  1  0
  2 11  1  0
  3 10  4  0
  3 14  4  0
  4  5  1  0
  4 18  2  0
  6 12  1  0
  6 17  4  0
  6 23  4  0
  7  9  1  0
  7 13  4  0
  7 19  4  0
  9 20  1  0
 10 19  4  0
 11 25  4  0
 13 14  4  0
 15 16  4  0
 15 17  4  0
 15 21  4  0
 16 24  1  0
 16 25  4  0
 20 24  1  0
 20 26  2  0
 21 23  4  0
 22 23  1  0
M  END
$$$$

 Created by Python create_sdf_string function

 26 28  0  0  0  0  0  0  0  0999 V2000
   12.4616    8.6700   19.4180 N   0  0  0  0  0  0  0  0  0  0  0  0
   11.8329   10.8148   18.6769 N   0  0  0  0  0  0  0  0  0  0  0  0
    6.1021    2.5564   21.0678 C   0  0  0  0  0  0  0  0  0  0  0  0
   10.9097   11.8051   18.4804 C   0  0  0  0  0  0  0  0  0  0  0  0
   11.2280   12.9135   17.5669 C   0  0  0  0  0  0  0  0  0  0  0  0
   12.3782    5.4231   20.7777 C   0  0  0  0  0  0  0  0  0  0  0  0
    7.7365    4.6508   21.6987 C   0  0  0  0  0  0  0  0  0  0  0  0
   13.0186   11.0102   18.0020 C   0  0  0  0  0  0  0  0  0  0  0  0
    8.6628    5.7088   21.8871 N   0  0  0  0  0  0  0  0  0  0  0  0
    5.6516    3.5258   21.9140 C   0  0  0  0  0  0  0  0  0  0  0  0
   11.5863    9.6815   19.4539 C   0  0  0  0  0  0  0  0  0  0  0  0
   12.9648    4.1543   20.9205 C   0  0  0  0  0  0  0  0  0  0  0  0
    8.2089    3.6265   20.8929 C   0  0  0  0  0  0  0  0  0  0  0  0
    7.3827    2.5724   20.5432 C   0  0  0  0  0  0  0  0  0  0  0  0
   11.1529    7.2750   20.8025 C   0  0  0  0  0  0  0  0  0  0  0  0
   10.2573    8.3215   20.9827 C   0  0  0  0  0  0  0  0  0  0  0  0
   11.1606    5.9378   21.2366 N   0  0  0  0  0  0  0  0  0  0  0  0
    9.8932   11.6736   19.0677 O   0  0  0  0  0  0  0  0  0  0  0  0
    6.4470    4.5850   22.2321 C   0  0  0  0  0  0  0  0  0  0  0  0
    8.4619    6.9895   22.2968 C   0  0  0  0  0  0  0  0  0  0  0  0
   12.2747    7.5102   20.0420 C   0  0  0  0  0  0  0  0  0  0  0  0
   14.2544    6.2142   19.4191 C   0  0  0  0  0  0  0  0  0  0  0  0
   13.0695    6.3705   20.0375 N   0  0  0  0  0  0  0  0  0  0  0  0
    9.1913    8.0876   21.8361 N   0  0  0  0  0  0  0  0  0  0  0  0
   10.4739    9.4813   20.2889 C   0  0  0  0  0  0  0  0  0  0  0  0
    7.5551    7.1270   23.1200 O   0  0  0  0  0  0  0  0  0  0  0  0
  1 11  4  0
  1 21  4  0
  2  4  1  0
  2  8  1  0
  2 11  1  0
  3 10  4  0
  3 14  4  0
  4  5  1  0
  4 18  2  0
  6 12  1  0
  6 17  4  0
  6 23  4  0
  7  9  1  0
  7 13  4  0
  7 19  4  0
  9 20  1  0
 10 19  4  0
 11 25  4  0
 13 14  4  0
 15 16  4  0
 15 17  4  0
 15 21  4  0
 16 24  1  0
 16 25  4  0
 20 24  1  0
 20 26  2  0
 21 23  4  0
 22 23  1  0
M  END
$$$$

 Created by Python create_sdf_string function

 26 28  0  0  0  0  0  0  0  0999 V2000
   12.4616    8.6700   19.4180 N   0  0  0  0  0  0  0  0  0  0  0  0
   11.8329   10.8148   18.6769 N   0  0  0  0  0  0  0  0  0  0  0  0
    6.1021    2.5564   21.0678 C   0  0  0  0  0  0  0  0  0  0  0  0
   10.9097   11.8051   18.4804 C   0  0  0  0  0  0  0  0  0  0  0  0
   11.2280   12.9135   17.5669 C   0  0  0  0  0  0  0  0  0  0  0  0
   12.3782    5.4231   20.7777 C   0  0  0  0  0  0  0  0  0  0  0  0
    7.7365    4.6508   21.6987 C   0  0  0  0  0  0  0  0  0  0  0  0
   13.0186   11.0102   18.0020 C   0  0  0  0  0  0  0  0  0  0  0  0
    8.6628    5.7088   21.8871 N   0  0  0  0  0  0  0  0  0  0  0  0
    5.6516    3.5258   21.9140 C   0  0  0  0  0  0  0  0  0  0  0  0
   11.5863    9.6815   19.4539 C   0  0  0  0  0  0  0  0  0  0  0  0
   12.9648    4.1543   20.9205 C   0  0  0  0  0  0  0  0  0  0  0  0
    8.2089    3.6265   20.8929 C   0  0  0  0  0  0  0  0  0  0  0  0
    7.3827    2.5724   20.5432 C   0  0  0  0  0  0  0  0  0  0  0  0
   11.1529    7.2750   20.8025 C   0  0  0  0  0  0  0  0  0  0  0  0
   10.2573    8.3215   20.9827 C   0  0  0  0  0  0  0  0  0  0  0  0
   11.1606    5.9378   21.2366 N   0  0  0  0  0  0  0  0  0  0  0  0
    9.8932   11.6736   19.0677 O   0  0  0  0  0  0  0  0  0  0  0  0
    6.4470    4.5850   22.2321 C   0  0  0  0  0  0  0  0  0  0  0  0
    8.4619    6.9895   22.2968 C   0  0  0  0  0  0  0  0  0  0  0  0
   12.2747    7.5102   20.0420 C   0  0  0  0  0  0  0  0  0  0  0  0
   14.2544    6.2142   19.4191 C   0  0  0  0  0  0  0  0  0  0  0  0
   13.0695    6.3705   20.0375 N   0  0  0  0  0  0  0  0  0  0  0  0
    9.1913    8.0876   21.8361 N   0  0  0  0  0  0  0  0  0  0  0  0
   10.4739    9.4813   20.2889 C   0  0  0  0  0  0  0  0  0  0  0  0
    7.5551    7.1270   23.1200 O   0  0  0  0  0  0  0  0  0  0  0  0
  1 11  4  0
  1 21  4  0
  2  4  1  0
  2  8  1  0
  2 11  1  0
  3 10  4  0
  3 14  4  0
  4  5  1  0
  4 18  2  0
  6 12  1  0
  6 17  4  0
  6 23  4  0
  7  9  1  0
  7 13  4  0
  7 19  4  0
  9 20  1  0
 10 19  4  0
 11 25  4  0
 13 14  4  0
 15 16  4  0
 15 17  4  0
 15 21  4  0
 16 24  1  0
 16 25  4  0
 20 24  1  0
 20 26  2  0
 21 23  4  0
 22 23  1  0
M  END
$$$$

 Created by Python create_sdf_string function

 26 28  0  0  0  0  0  0  0  0999 V2000
   12.4616    8.6700   19.4180 N   0  0  0  0  0  0  0  0  0  0  0  0
   11.8329   10.8148   18.6769 N   0  0  0  0  0  0  0  0  0  0  0  0
    6.1021    2.5564   21.0678 C   0  0  0  0  0  0  0  0  0  0  0  0
   10.9097   11.8051   18.4804 C   0  0  0  0  0  0  0  0  0  0  0  0
   11.2280   12.9135   17.5669 C   0  0  0  0  0  0  0  0  0  0  0  0
   12.3782    5.4231   20.7777 C   0  0  0  0  0  0  0  0  0  0  0  0
    7.7365    4.6508   21.6987 C   0  0  0  0  0  0  0  0  0  0  0  0
   13.0186   11.0102   18.0020 C   0  0  0  0  0  0  0  0  0  0  0  0
    8.6628    5.7088   21.8871 N   0  0  0  0  0  0  0  0  0  0  0  0
    5.6516    3.5258   21.9140 C   0  0  0  0  0  0  0  0  0  0  0  0
   11.5863    9.6815   19.4539 C   0  0  0  0  0  0  0  0  0  0  0  0
   12.9648    4.1543   20.9205 C   0  0  0  0  0  0  0  0  0  0  0  0
    8.2089    3.6265   20.8929 C   0  0  0  0  0  0  0  0  0  0  0  0
    7.3827    2.5724   20.5432 C   0  0  0  0  0  0  0  0  0  0  0  0
   11.1529    7.2750   20.8025 C   0  0  0  0  0  0  0  0  0  0  0  0
   10.2573    8.3215   20.9827 C   0  0  0  0  0  0  0  0  0  0  0  0
   11.1606    5.9378   21.2366 N   0  0  0  0  0  0  0  0  0  0  0  0
    9.8932   11.6736   19.0677 O   0  0  0  0  0  0  0  0  0  0  0  0
    6.4470    4.5850   22.2321 C   0  0  0  0  0  0  0  0  0  0  0  0
    8.4619    6.9895   22.2968 C   0  0  0  0  0  0  0  0  0  0  0  0
   12.2747    7.5102   20.0420 C   0  0  0  0  0  0  0  0  0  0  0  0
   14.2544    6.2142   19.4191 C   0  0  0  0  0  0  0  0  0  0  0  0
   13.0695    6.3705   20.0375 N   0  0  0  0  0  0  0  0  0  0  0  0
    9.1913    8.0876   21.8361 N   0  0  0  0  0  0  0  0  0  0  0  0
   10.4739    9.4813   20.2889 C   0  0  0  0  0  0  0  0  0  0  0  0
    7.5551    7.1270   23.1200 O   0  0  0  0  0  0  0  0  0  0  0  0
  1 11  4  0
  1 21  4  0
  2  4  1  0
  2  8  1  0
  2 11  1  0
  3 10  4  0
  3 14  4  0
  4  5  1  0
  4 18  2  0
  6 12  1  0
  6 17  4  0
  6 23  4  0
  7  9  1  0
  7 13  4  0
  7 19  4  0
  9 20  1  0
 10 19  4  0
 11 25  4  0
 13 14  4  0
 15 16  4  0
 15 17  4  0
 15 21  4  0
 16 24  1  0
 16 25  4  0
 20 24  1  0
 20 26  2  0
 21 23  4  0
 22 23  1  0
M  END
$$$$

 Created by Python create_sdf_string function

 26 28  0  0  0  0  0  0  0  0999 V2000
   12.4616    8.6700   19.4180 N   0  0  0  0  0  0  0  0  0  0  0  0
   11.8329   10.8148   18.6769 N   0  0  0  0  0  0  0  0  0  0  0  0
    6.1021    2.5564   21.0678 C   0  0  0  0  0  0  0  0  0  0  0  0
   10.9097   11.8051   18.4804 C   0  0  0  0  0  0  0  0  0  0  0  0
   11.2280   12.9135   17.5669 C   0  0  0  0  0  0  0  0  0  0  0  0
   12.3782    5.4231   20.7777 C   0  0  0  0  0  0  0  0  0  0  0  0
    7.7365    4.6508   21.6987 C   0  0  0  0  0  0  0  0  0  0  0  0
   13.0186   11.0102   18.0020 C   0  0  0  0  0  0  0  0  0  0  0  0
    8.6628    5.7088   21.8871 N   0  0  0  0  0  0  0  0  0  0  0  0
    5.6516    3.5258   21.9140 C   0  0  0  0  0  0  0  0  0  0  0  0
   11.5863    9.6815   19.4539 C   0  0  0  0  0  0  0  0  0  0  0  0
   12.9648    4.1543   20.9205 C   0  0  0  0  0  0  0  0  0  0  0  0
    8.2089    3.6265   20.8929 C   0  0  0  0  0  0  0  0  0  0  0  0
    7.3827    2.5724   20.5432 C   0  0  0  0  0  0  0  0  0  0  0  0
   11.1529    7.2750   20.8025 C   0  0  0  0  0  0  0  0  0  0  0  0
   10.2573    8.3215   20.9827 C   0  0  0  0  0  0  0  0  0  0  0  0
   11.1606    5.9378   21.2366 N   0  0  0  0  0  0  0  0  0  0  0  0
    9.8932   11.6736   19.0677 O   0  0  0  0  0  0  0  0  0  0  0  0
    6.4470    4.5850   22.2321 C   0  0  0  0  0  0  0  0  0  0  0  0
    8.4619    6.9895   22.2968 C   0  0  0  0  0  0  0  0  0  0  0  0
   12.2747    7.5102   20.0420 C   0  0  0  0  0  0  0  0  0  0  0  0
   14.2544    6.2142   19.4191 C   0  0  0  0  0  0  0  0  0  0  0  0
   13.0695    6.3705   20.0375 N   0  0  0  0  0  0  0  0  0  0  0  0
    9.1913    8.0876   21.8361 N   0  0  0  0  0  0  0  0  0  0  0  0
   10.4739    9.4813   20.2889 C   0  0  0  0  0  0  0  0  0  0  0  0
    7.5551    7.1270   23.1200 O   0  0  0  0  0  0  0  0  0  0  0  0
  1 11  4  0
  1 21  4  0
  2  4  1  0
  2  8  1  0
  2 11  1  0
  3 10  4  0
  3 14  4  0
  4  5  1  0
  4 18  2  0
  6 12  1  0
  6 17  4  0
  6 23  4  0
  7  9  1  0
  7 13  4  0
  7 19  4  0
  9 20  1  0
 10 19  4  0
 11 25  4  0
 13 14  4  0
 15 16  4  0
 15 17  4  0
 15 21  4  0
 16 24  1  0
 16 25  4  0
 20 24  1  0
 20 26  2  0
 21 23  4  0
 22 23  1  0
M  END
$$$$

 Created by Python create_sdf_string function

 26 28  0  0  0  0  0  0  0  0999 V2000
   12.4616    8.6700   19.4180 N   0  0  0  0  0  0  0  0  0  0  0  0
   11.8329   10.8148   18.6769 N   0  0  0  0  0  0  0  0  0  0  0  0
    6.1021    2.5564   21.0678 C   0  0  0  0  0  0  0  0  0  0  0  0
   10.9097   11.8051   18.4804 C   0  0  0  0  0  0  0  0  0  0  0  0
   11.2280   12.9135   17.5669 C   0  0  0  0  0  0  0  0  0  0  0  0
   12.3782    5.4231   20.7777 C   0  0  0  0  0  0  0  0  0  0  0  0
    7.7365    4.6508   21.6987 C   0  0  0  0  0  0  0  0  0  0  0  0
   13.0186   11.0102   18.0020 C   0  0  0  0  0  0  0  0  0  0  0  0
    8.6628    5.7088   21.8871 N   0  0  0  0  0  0  0  0  0  0  0  0
    5.6516    3.5258   21.9140 C   0  0  0  0  0  0  0  0  0  0  0  0
   11.5863    9.6815   19.4539 C   0  0  0  0  0  0  0  0  0  0  0  0
   12.9648    4.1543   20.9205 C   0  0  0  0  0  0  0  0  0  0  0  0
    8.2089    3.6265   20.8929 C   0  0  0  0  0  0  0  0  0  0  0  0
    7.3827    2.5724   20.5432 C   0  0  0  0  0  0  0  0  0  0  0  0
   11.1529    7.2750   20.8025 C   0  0  0  0  0  0  0  0  0  0  0  0
   10.2573    8.3215   20.9827 C   0  0  0  0  0  0  0  0  0  0  0  0
   11.1606    5.9378   21.2366 N   0  0  0  0  0  0  0  0  0  0  0  0
    9.8932   11.6736   19.0677 O   0  0  0  0  0  0  0  0  0  0  0  0
    6.4470    4.5850   22.2321 C   0  0  0  0  0  0  0  0  0  0  0  0
    8.4619    6.9895   22.2968 C   0  0  0  0  0  0  0  0  0  0  0  0
   12.2747    7.5102   20.0420 C   0  0  0  0  0  0  0  0  0  0  0  0
   14.2544    6.2142   19.4191 C   0  0  0  0  0  0  0  0  0  0  0  0
   13.0695    6.3705   20.0375 N   0  0  0  0  0  0  0  0  0  0  0  0
    9.1913    8.0876   21.8361 N   0  0  0  0  0  0  0  0  0  0  0  0
   10.4739    9.4813   20.2889 C   0  0  0  0  0  0  0  0  0  0  0  0
    7.5551    7.1270   23.1200 O   0  0  0  0  0  0  0  0  0  0  0  0
  1 11  4  0
  1 21  4  0
  2  4  1  0
  2  8  1  0
  2 11  1  0
  3 10  4  0
  3 14  4  0
  4  5  1  0
  4 18  2  0
  6 12  1  0
  6 17  4  0
  6 23  4  0
  7  9  1  0
  7 13  4  0
  7 19  4  0
  9 20  1  0
 10 19  4  0
 11 25  4  0
 13 14  4  0
 15 16  4  0
 15 17  4  0
 15 21  4  0
 16 24  1  0
 16 25  4  0
 20 24  1  0
 20 26  2  0
 21 23  4  0
 22 23  1  0
M  END
$$$$

 Created by Python create_sdf_string function

 26 28  0  0  0  0  0  0  0  0999 V2000
   12.4616    8.6700   19.4180 N   0  0  0  0  0  0  0  0  0  0  0  0
   11.8329   10.8148   18.6769 N   0  0  0  0  0  0  0  0  0  0  0  0
    6.1021    2.5564   21.0678 C   0  0  0  0  0  0  0  0  0  0  0  0
   10.9097   11.8051   18.4804 C   0  0  0  0  0  0  0  0  0  0  0  0
   11.2280   12.9135   17.5669 C   0  0  0  0  0  0  0  0  0  0  0  0
   12.3782    5.4231   20.7777 C   0  0  0  0  0  0  0  0  0  0  0  0
    7.7365    4.6508   21.6987 C   0  0  0  0  0  0  0  0  0  0  0  0
   13.0186   11.0102   18.0020 C   0  0  0  0  0  0  0  0  0  0  0  0
    8.6628    5.7088   21.8871 N   0  0  0  0  0  0  0  0  0  0  0  0
    5.6516    3.5258   21.9140 C   0  0  0  0  0  0  0  0  0  0  0  0
   11.5863    9.6815   19.4539 C   0  0  0  0  0  0  0  0  0  0  0  0
   12.9648    4.1543   20.9205 C   0  0  0  0  0  0  0  0  0  0  0  0
    8.2089    3.6265   20.8929 C   0  0  0  0  0  0  0  0  0  0  0  0
    7.3827    2.5724   20.5432 C   0  0  0  0  0  0  0  0  0  0  0  0
   11.1529    7.2750   20.8025 C   0  0  0  0  0  0  0  0  0  0  0  0
   10.2573    8.3215   20.9827 C   0  0  0  0  0  0  0  0  0  0  0  0
   11.1606    5.9378   21.2366 N   0  0  0  0  0  0  0  0  0  0  0  0
    9.8932   11.6736   19.0677 O   0  0  0  0  0  0  0  0  0  0  0  0
    6.4470    4.5850   22.2321 C   0  0  0  0  0  0  0  0  0  0  0  0
    8.4619    6.9895   22.2968 C   0  0  0  0  0  0  0  0  0  0  0  0
   12.2747    7.5102   20.0420 C   0  0  0  0  0  0  0  0  0  0  0  0
   14.2544    6.2142   19.4191 C   0  0  0  0  0  0  0  0  0  0  0  0
   13.0695    6.3705   20.0375 N   0  0  0  0  0  0  0  0  0  0  0  0
    9.1913    8.0876   21.8361 N   0  0  0  0  0  0  0  0  0  0  0  0
   10.4739    9.4813   20.2889 C   0  0  0  0  0  0  0  0  0  0  0  0
    7.5551    7.1270   23.1200 O   0  0  0  0  0  0  0  0  0  0  0  0
  1 11  4  0
  1 21  4  0
  2  4  1  0
  2  8  1  0
  2 11  1  0
  3 10  4  0
  3 14  4  0
  4  5  1  0
  4 18  2  0
  6 12  1  0
  6 17  4  0
  6 23  4  0
  7  9  1  0
  7 13  4  0
  7 19  4  0
  9 20  1  0
 10 19  4  0
 11 25  4  0
 13 14  4  0
 15 16  4  0
 15 17  4  0
 15 21  4  0
 16 24  1  0
 16 25  4  0
 20 24  1  0
 20 26  2  0
 21 23  4  0
 22 23  1  0
M  END
$$$$

 Created by Python create_sdf_string function

 26 28  0  0  0  0  0  0  0  0999 V2000
   12.4616    8.6700   19.4180 N   0  0  0  0  0  0  0  0  0  0  0  0
   11.8329   10.8148   18.6769 N   0  0  0  0  0  0  0  0  0  0  0  0
    6.1021    2.5564   21.0678 C   0  0  0  0  0  0  0  0  0  0  0  0
   10.9097   11.8051   18.4804 C   0  0  0  0  0  0  0  0  0  0  0  0
   11.2280   12.9135   17.5669 C   0  0  0  0  0  0  0  0  0  0  0  0
   12.3782    5.4231   20.7777 C   0  0  0  0  0  0  0  0  0  0  0  0
    7.7365    4.6508   21.6987 C   0  0  0  0  0  0  0  0  0  0  0  0
   13.0186   11.0102   18.0020 C   0  0  0  0  0  0  0  0  0  0  0  0
    8.6628    5.7088   21.8871 N   0  0  0  0  0  0  0  0  0  0  0  0
    5.6516    3.5258   21.9140 C   0  0  0  0  0  0  0  0  0  0  0  0
   11.5863    9.6815   19.4539 C   0  0  0  0  0  0  0  0  0  0  0  0
   12.9648    4.1543   20.9205 C   0  0  0  0  0  0  0  0  0  0  0  0
    8.2089    3.6265   20.8929 C   0  0  0  0  0  0  0  0  0  0  0  0
    7.3827    2.5724   20.5432 C   0  0  0  0  0  0  0  0  0  0  0  0
   11.1529    7.2750   20.8025 C   0  0  0  0  0  0  0  0  0  0  0  0
   10.2573    8.3215   20.9827 C   0  0  0  0  0  0  0  0  0  0  0  0
   11.1606    5.9378   21.2366 N   0  0  0  0  0  0  0  0  0  0  0  0
    9.8932   11.6736   19.0677 O   0  0  0  0  0  0  0  0  0  0  0  0
    6.4470    4.5850   22.2321 C   0  0  0  0  0  0  0  0  0  0  0  0
    8.4619    6.9895   22.2968 C   0  0  0  0  0  0  0  0  0  0  0  0
   12.2747    7.5102   20.0420 C   0  0  0  0  0  0  0  0  0  0  0  0
   14.2544    6.2142   19.4191 C   0  0  0  0  0  0  0  0  0  0  0  0
   13.0695    6.3705   20.0375 N   0  0  0  0  0  0  0  0  0  0  0  0
    9.1913    8.0876   21.8361 N   0  0  0  0  0  0  0  0  0  0  0  0
   10.4739    9.4813   20.2889 C   0  0  0  0  0  0  0  0  0  0  0  0
    7.5551    7.1270   23.1200 O   0  0  0  0  0  0  0  0  0  0  0  0
  1 11  4  0
  1 21  4  0
  2  4  1  0
  2  8  1  0
  2 11  1  0
  3 10  4  0
  3 14  4  0
  4  5  1  0
  4 18  2  0
  6 12  1  0
  6 17  4  0
  6 23  4  0
  7  9  1  0
  7 13  4  0
  7 19  4  0
  9 20  1  0
 10 19  4  0
 11 25  4  0
 13 14  4  0
 15 16  4  0
 15 17  4  0
 15 21  4  0
 16 24  1  0
 16 25  4  0
 20 24  1  0
 20 26  2  0
 21 23  4  0
 22 23  1  0
M  END
$$$$

 Created by Python create_sdf_string function

 26 28  0  0  0  0  0  0  0  0999 V2000
   12.4616    8.6700   19.4180 N   0  0  0  0  0  0  0  0  0  0  0  0
   11.8329   10.8148   18.6769 N   0  0  0  0  0  0  0  0  0  0  0  0
    6.1021    2.5564   21.0678 C   0  0  0  0  0  0  0  0  0  0  0  0
   10.9097   11.8051   18.4804 C   0  0  0  0  0  0  0  0  0  0  0  0
   11.2280   12.9135   17.5669 C   0  0  0  0  0  0  0  0  0  0  0  0
   12.3782    5.4231   20.7777 C   0  0  0  0  0  0  0  0  0  0  0  0
    7.7365    4.6508   21.6987 C   0  0  0  0  0  0  0  0  0  0  0  0
   13.0186   11.0102   18.0020 C   0  0  0  0  0  0  0  0  0  0  0  0
    8.6628    5.7088   21.8871 N   0  0  0  0  0  0  0  0  0  0  0  0
    5.6516    3.5258   21.9140 C   0  0  0  0  0  0  0  0  0  0  0  0
   11.5863    9.6815   19.4539 C   0  0  0  0  0  0  0  0  0  0  0  0
   12.9648    4.1543   20.9205 C   0  0  0  0  0  0  0  0  0  0  0  0
    8.2089    3.6265   20.8929 C   0  0  0  0  0  0  0  0  0  0  0  0
    7.3827    2.5724   20.5432 C   0  0  0  0  0  0  0  0  0  0  0  0
   11.1529    7.2750   20.8025 C   0  0  0  0  0  0  0  0  0  0  0  0
   10.2573    8.3215   20.9827 C   0  0  0  0  0  0  0  0  0  0  0  0
   11.1606    5.9378   21.2366 N   0  0  0  0  0  0  0  0  0  0  0  0
    9.8932   11.6736   19.0677 O   0  0  0  0  0  0  0  0  0  0  0  0
    6.4470    4.5850   22.2321 C   0  0  0  0  0  0  0  0  0  0  0  0
    8.4619    6.9895   22.2968 C   0  0  0  0  0  0  0  0  0  0  0  0
   12.2747    7.5102   20.0420 C   0  0  0  0  0  0  0  0  0  0  0  0
   14.2544    6.2142   19.4191 C   0  0  0  0  0  0  0  0  0  0  0  0
   13.0695    6.3705   20.0375 N   0  0  0  0  0  0  0  0  0  0  0  0
    9.1913    8.0876   21.8361 N   0  0  0  0  0  0  0  0  0  0  0  0
   10.4739    9.4813   20.2889 C   0  0  0  0  0  0  0  0  0  0  0  0
    7.5551    7.1270   23.1200 O   0  0  0  0  0  0  0  0  0  0  0  0
  1 11  4  0
  1 21  4  0
  2  4  1  0
  2  8  1  0
  2 11  1  0
  3 10  4  0
  3 14  4  0
  4  5  1  0
  4 18  2  0
  6 12  1  0
  6 17  4  0
  6 23  4  0
  7  9  1  0
  7 13  4  0
  7 19  4  0
  9 20  1  0
 10 19  4  0
 11 25  4  0
 13 14  4  0
 15 16  4  0
 15 17  4  0
 15 21  4  0
 16 24  1  0
 16 25  4  0
 20 24  1  0
 20 26  2  0
 21 23  4  0
 22 23  1  0
M  END
$$$$

 Created by Python create_sdf_string function

 26 28  0  0  0  0  0  0  0  0999 V2000
   12.4616    8.6700   19.4180 N   0  0  0  0  0  0  0  0  0  0  0  0
   11.8329   10.8148   18.6769 N   0  0  0  0  0  0  0  0  0  0  0  0
    6.1021    2.5564   21.0678 C   0  0  0  0  0  0  0  0  0  0  0  0
   10.9097   11.8051   18.4804 C   0  0  0  0  0  0  0  0  0  0  0  0
   11.2280   12.9135   17.5669 C   0  0  0  0  0  0  0  0  0  0  0  0
   12.3782    5.4231   20.7777 C   0  0  0  0  0  0  0  0  0  0  0  0
    7.7365    4.6508   21.6987 C   0  0  0  0  0  0  0  0  0  0  0  0
   13.0186   11.0102   18.0020 C   0  0  0  0  0  0  0  0  0  0  0  0
    8.6628    5.7088   21.8871 N   0  0  0  0  0  0  0  0  0  0  0  0
    5.6516    3.5258   21.9140 C   0  0  0  0  0  0  0  0  0  0  0  0
   11.5863    9.6815   19.4539 C   0  0  0  0  0  0  0  0  0  0  0  0
   12.9648    4.1543   20.9205 C   0  0  0  0  0  0  0  0  0  0  0  0
    8.2089    3.6265   20.8929 C   0  0  0  0  0  0  0  0  0  0  0  0
    7.3827    2.5724   20.5432 C   0  0  0  0  0  0  0  0  0  0  0  0
   11.1529    7.2750   20.8025 C   0  0  0  0  0  0  0  0  0  0  0  0
   10.2573    8.3215   20.9827 C   0  0  0  0  0  0  0  0  0  0  0  0
   11.1606    5.9378   21.2366 N   0  0  0  0  0  0  0  0  0  0  0  0
    9.8932   11.6736   19.0677 O   0  0  0  0  0  0  0  0  0  0  0  0
    6.4470    4.5850   22.2321 C   0  0  0  0  0  0  0  0  0  0  0  0
    8.4619    6.9895   22.2968 C   0  0  0  0  0  0  0  0  0  0  0  0
   12.2747    7.5102   20.0420 C   0  0  0  0  0  0  0  0  0  0  0  0
   14.2544    6.2142   19.4191 C   0  0  0  0  0  0  0  0  0  0  0  0
   13.0695    6.3705   20.0375 N   0  0  0  0  0  0  0  0  0  0  0  0
    9.1913    8.0876   21.8361 N   0  0  0  0  0  0  0  0  0  0  0  0
   10.4739    9.4813   20.2889 C   0  0  0  0  0  0  0  0  0  0  0  0
    7.5551    7.1270   23.1200 O   0  0  0  0  0  0  0  0  0  0  0  0
  1 11  4  0
  1 21  4  0
  2  4  1  0
  2  8  1  0
  2 11  1  0
  3 10  4  0
  3 14  4  0
  4  5  1  0
  4 18  2  0
  6 12  1  0
  6 17  4  0
  6 23  4  0
  7  9  1  0
  7 13  4  0
  7 19  4  0
  9 20  1  0
 10 19  4  0
 11 25  4  0
 13 14  4  0
 15 16  4  0
 15 17  4  0
 15 21  4  0
 16 24  1  0
 16 25  4  0
 20 24  1  0
 20 26  2  0
 21 23  4  0
 22 23  1  0
M  END
$$$$

 Created by Python create_sdf_string function

 26 28  0  0  0  0  0  0  0  0999 V2000
   12.4616    8.6700   19.4180 N   0  0  0  0  0  0  0  0  0  0  0  0
   11.8329   10.8148   18.6769 N   0  0  0  0  0  0  0  0  0  0  0  0
    6.1021    2.5564   21.0678 C   0  0  0  0  0  0  0  0  0  0  0  0
   10.9097   11.8051   18.4804 C   0  0  0  0  0  0  0  0  0  0  0  0
   11.2280   12.9135   17.5669 C   0  0  0  0  0  0  0  0  0  0  0  0
   12.3782    5.4231   20.7777 C   0  0  0  0  0  0  0  0  0  0  0  0
    7.7365    4.6508   21.6987 C   0  0  0  0  0  0  0  0  0  0  0  0
   13.0186   11.0102   18.0020 C   0  0  0  0  0  0  0  0  0  0  0  0
    8.6628    5.7088   21.8871 N   0  0  0  0  0  0  0  0  0  0  0  0
    5.6516    3.5258   21.9140 C   0  0  0  0  0  0  0  0  0  0  0  0
   11.5863    9.6815   19.4539 C   0  0  0  0  0  0  0  0  0  0  0  0
   12.9648    4.1543   20.9205 C   0  0  0  0  0  0  0  0  0  0  0  0
    8.2089    3.6265   20.8929 C   0  0  0  0  0  0  0  0  0  0  0  0
    7.3827    2.5724   20.5432 C   0  0  0  0  0  0  0  0  0  0  0  0
   11.1529    7.2750   20.8025 C   0  0  0  0  0  0  0  0  0  0  0  0
   10.2573    8.3215   20.9827 C   0  0  0  0  0  0  0  0  0  0  0  0
   11.1606    5.9378   21.2366 N   0  0  0  0  0  0  0  0  0  0  0  0
    9.8932   11.6736   19.0677 O   0  0  0  0  0  0  0  0  0  0  0  0
    6.4470    4.5850   22.2321 C   0  0  0  0  0  0  0  0  0  0  0  0
    8.4619    6.9895   22.2968 C   0  0  0  0  0  0  0  0  0  0  0  0
   12.2747    7.5102   20.0420 C   0  0  0  0  0  0  0  0  0  0  0  0
   14.2544    6.2142   19.4191 C   0  0  0  0  0  0  0  0  0  0  0  0
   13.0695    6.3705   20.0375 N   0  0  0  0  0  0  0  0  0  0  0  0
    9.1913    8.0876   21.8361 N   0  0  0  0  0  0  0  0  0  0  0  0
   10.4739    9.4813   20.2889 C   0  0  0  0  0  0  0  0  0  0  0  0
    7.5551    7.1270   23.1200 O   0  0  0  0  0  0  0  0  0  0  0  0
  1 11  4  0
  1 21  4  0
  2  4  1  0
  2  8  1  0
  2 11  1  0
  3 10  4  0
  3 14  4  0
  4  5  1  0
  4 18  2  0
  6 12  1  0
  6 17  4  0
  6 23  4  0
  7  9  1  0
  7 13  4  0
  7 19  4  0
  9 20  1  0
 10 19  4  0
 11 25  4  0
 13 14  4  0
 15 16  4  0
 15 17  4  0
 15 21  4  0
 16 24  1  0
 16 25  4  0
 20 24  1  0
 20 26  2  0
 21 23  4  0
 22 23  1  0
M  END
$$$$

 Created by Python create_sdf_string function

 26 28  0  0  0  0  0  0  0  0999 V2000
   12.4616    8.6700   19.4180 N   0  0  0  0  0  0  0  0  0  0  0  0
   11.8329   10.8148   18.6769 N   0  0  0  0  0  0  0  0  0  0  0  0
    6.1021    2.5564   21.0678 C   0  0  0  0  0  0  0  0  0  0  0  0
   10.9097   11.8051   18.4804 C   0  0  0  0  0  0  0  0  0  0  0  0
   11.2280   12.9135   17.5669 C   0  0  0  0  0  0  0  0  0  0  0  0
   12.3782    5.4231   20.7777 C   0  0  0  0  0  0  0  0  0  0  0  0
    7.7365    4.6508   21.6987 C   0  0  0  0  0  0  0  0  0  0  0  0
   13.0186   11.0102   18.0020 C   0  0  0  0  0  0  0  0  0  0  0  0
    8.6628    5.7088   21.8871 N   0  0  0  0  0  0  0  0  0  0  0  0
    5.6516    3.5258   21.9140 C   0  0  0  0  0  0  0  0  0  0  0  0
   11.5863    9.6815   19.4539 C   0  0  0  0  0  0  0  0  0  0  0  0
   12.9648    4.1543   20.9205 C   0  0  0  0  0  0  0  0  0  0  0  0
    8.2089    3.6265   20.8929 C   0  0  0  0  0  0  0  0  0  0  0  0
    7.3827    2.5724   20.5432 C   0  0  0  0  0  0  0  0  0  0  0  0
   11.1529    7.2750   20.8025 C   0  0  0  0  0  0  0  0  0  0  0  0
   10.2573    8.3215   20.9827 C   0  0  0  0  0  0  0  0  0  0  0  0
   11.1606    5.9378   21.2366 N   0  0  0  0  0  0  0  0  0  0  0  0
    9.8932   11.6736   19.0677 O   0  0  0  0  0  0  0  0  0  0  0  0
    6.4470    4.5850   22.2321 C   0  0  0  0  0  0  0  0  0  0  0  0
    8.4619    6.9895   22.2968 C   0  0  0  0  0  0  0  0  0  0  0  0
   12.2747    7.5102   20.0420 C   0  0  0  0  0  0  0  0  0  0  0  0
   14.2544    6.2142   19.4191 C   0  0  0  0  0  0  0  0  0  0  0  0
   13.0695    6.3705   20.0375 N   0  0  0  0  0  0  0  0  0  0  0  0
    9.1913    8.0876   21.8361 N   0  0  0  0  0  0  0  0  0  0  0  0
   10.4739    9.4813   20.2889 C   0  0  0  0  0  0  0  0  0  0  0  0
    7.5551    7.1270   23.1200 O   0  0  0  0  0  0  0  0  0  0  0  0
  1 11  4  0
  1 21  4  0
  2  4  1  0
  2  8  1  0
  2 11  1  0
  3 10  4  0
  3 14  4  0
  4  5  1  0
  4 18  2  0
  6 12  1  0
  6 17  4  0
  6 23  4  0
  7  9  1  0
  7 13  4  0
  7 19  4  0
  9 20  1  0
 10 19  4  0
 11 25  4  0
 13 14  4  0
 15 16  4  0
 15 17  4  0
 15 21  4  0
 16 24  1  0
 16 25  4  0
 20 24  1  0
 20 26  2  0
 21 23  4  0
 22 23  1  0
M  END
$$$$

 Created by Python create_sdf_string function

 26 28  0  0  0  0  0  0  0  0999 V2000
   12.4616    8.6700   19.4180 N   0  0  0  0  0  0  0  0  0  0  0  0
   11.8329   10.8148   18.6769 N   0  0  0  0  0  0  0  0  0  0  0  0
    6.1021    2.5564   21.0678 C   0  0  0  0  0  0  0  0  0  0  0  0
   10.9097   11.8051   18.4804 C   0  0  0  0  0  0  0  0  0  0  0  0
   11.2280   12.9135   17.5669 C   0  0  0  0  0  0  0  0  0  0  0  0
   12.3782    5.4231   20.7777 C   0  0  0  0  0  0  0  0  0  0  0  0
    7.7365    4.6508   21.6987 C   0  0  0  0  0  0  0  0  0  0  0  0
   13.0186   11.0102   18.0020 C   0  0  0  0  0  0  0  0  0  0  0  0
    8.6628    5.7088   21.8871 N   0  0  0  0  0  0  0  0  0  0  0  0
    5.6516    3.5258   21.9140 C   0  0  0  0  0  0  0  0  0  0  0  0
   11.5863    9.6815   19.4539 C   0  0  0  0  0  0  0  0  0  0  0  0
   12.9648    4.1543   20.9205 C   0  0  0  0  0  0  0  0  0  0  0  0
    8.2089    3.6265   20.8929 C   0  0  0  0  0  0  0  0  0  0  0  0
    7.3827    2.5724   20.5432 C   0  0  0  0  0  0  0  0  0  0  0  0
   11.1529    7.2750   20.8025 C   0  0  0  0  0  0  0  0  0  0  0  0
   10.2573    8.3215   20.9827 C   0  0  0  0  0  0  0  0  0  0  0  0
   11.1606    5.9378   21.2366 N   0  0  0  0  0  0  0  0  0  0  0  0
    9.8932   11.6736   19.0677 O   0  0  0  0  0  0  0  0  0  0  0  0
    6.4470    4.5850   22.2321 C   0  0  0  0  0  0  0  0  0  0  0  0
    8.4619    6.9895   22.2968 C   0  0  0  0  0  0  0  0  0  0  0  0
   12.2747    7.5102   20.0420 C   0  0  0  0  0  0  0  0  0  0  0  0
   14.2544    6.2142   19.4191 C   0  0  0  0  0  0  0  0  0  0  0  0
   13.0695    6.3705   20.0375 N   0  0  0  0  0  0  0  0  0  0  0  0
    9.1913    8.0876   21.8361 N   0  0  0  0  0  0  0  0  0  0  0  0
   10.4739    9.4813   20.2889 C   0  0  0  0  0  0  0  0  0  0  0  0
    7.5551    7.1270   23.1200 O   0  0  0  0  0  0  0  0  0  0  0  0
  1 11  4  0
  1 21  4  0
  2  4  1  0
  2  8  1  0
  2 11  1  0
  3 10  4  0
  3 14  4  0
  4  5  1  0
  4 18  2  0
  6 12  1  0
  6 17  4  0
  6 23  4  0
  7  9  1  0
  7 13  4  0
  7 19  4  0
  9 20  1  0
 10 19  4  0
 11 25  4  0
 13 14  4  0
 15 16  4  0
 15 17  4  0
 15 21  4  0
 16 24  1  0
 16 25  4  0
 20 24  1  0
 20 26  2  0
 21 23  4  0
 22 23  1  0
M  END
$$$$

 Created by Python create_sdf_string function

 26 28  0  0  0  0  0  0  0  0999 V2000
   12.4616    8.6700   19.4180 N   0  0  0  0  0  0  0  0  0  0  0  0
   11.8329   10.8148   18.6769 N   0  0  0  0  0  0  0  0  0  0  0  0
    6.1021    2.5564   21.0678 C   0  0  0  0  0  0  0  0  0  0  0  0
   10.9097   11.8051   18.4804 C   0  0  0  0  0  0  0  0  0  0  0  0
   11.2280   12.9135   17.5669 C   0  0  0  0  0  0  0  0  0  0  0  0
   12.3782    5.4231   20.7777 C   0  0  0  0  0  0  0  0  0  0  0  0
    7.7365    4.6508   21.6987 C   0  0  0  0  0  0  0  0  0  0  0  0
   13.0186   11.0102   18.0020 C   0  0  0  0  0  0  0  0  0  0  0  0
    8.6628    5.7088   21.8871 N   0  0  0  0  0  0  0  0  0  0  0  0
    5.6516    3.5258   21.9140 C   0  0  0  0  0  0  0  0  0  0  0  0
   11.5863    9.6815   19.4539 C   0  0  0  0  0  0  0  0  0  0  0  0
   12.9648    4.1543   20.9205 C   0  0  0  0  0  0  0  0  0  0  0  0
    8.2089    3.6265   20.8929 C   0  0  0  0  0  0  0  0  0  0  0  0
    7.3827    2.5724   20.5432 C   0  0  0  0  0  0  0  0  0  0  0  0
   11.1529    7.2750   20.8025 C   0  0  0  0  0  0  0  0  0  0  0  0
   10.2573    8.3215   20.9827 C   0  0  0  0  0  0  0  0  0  0  0  0
   11.1606    5.9378   21.2366 N   0  0  0  0  0  0  0  0  0  0  0  0
    9.8932   11.6736   19.0677 O   0  0  0  0  0  0  0  0  0  0  0  0
    6.4470    4.5850   22.2321 C   0  0  0  0  0  0  0  0  0  0  0  0
    8.4619    6.9895   22.2968 C   0  0  0  0  0  0  0  0  0  0  0  0
   12.2747    7.5102   20.0420 C   0  0  0  0  0  0  0  0  0  0  0  0
   14.2544    6.2142   19.4191 C   0  0  0  0  0  0  0  0  0  0  0  0
   13.0695    6.3705   20.0375 N   0  0  0  0  0  0  0  0  0  0  0  0
    9.1913    8.0876   21.8361 N   0  0  0  0  0  0  0  0  0  0  0  0
   10.4739    9.4813   20.2889 C   0  0  0  0  0  0  0  0  0  0  0  0
    7.5551    7.1270   23.1200 O   0  0  0  0  0  0  0  0  0  0  0  0
  1 11  4  0
  1 21  4  0
  2  4  1  0
  2  8  1  0
  2 11  1  0
  3 10  4  0
  3 14  4  0
  4  5  1  0
  4 18  2  0
  6 12  1  0
  6 17  4  0
  6 23  4  0
  7  9  1  0
  7 13  4  0
  7 19  4  0
  9 20  1  0
 10 19  4  0
 11 25  4  0
 13 14  4  0
 15 16  4  0
 15 17  4  0
 15 21  4  0
 16 24  1  0
 16 25  4  0
 20 24  1  0
 20 26  2  0
 21 23  4  0
 22 23  1  0
M  END
$$$$

 Created by Python create_sdf_string function

 26 28  0  0  0  0  0  0  0  0999 V2000
   12.4616    8.6700   19.4180 N   0  0  0  0  0  0  0  0  0  0  0  0
   11.8329   10.8148   18.6769 N   0  0  0  0  0  0  0  0  0  0  0  0
    6.1021    2.5564   21.0678 C   0  0  0  0  0  0  0  0  0  0  0  0
   10.9097   11.8051   18.4804 C   0  0  0  0  0  0  0  0  0  0  0  0
   11.2280   12.9135   17.5669 C   0  0  0  0  0  0  0  0  0  0  0  0
   12.3782    5.4231   20.7777 C   0  0  0  0  0  0  0  0  0  0  0  0
    7.7365    4.6508   21.6987 C   0  0  0  0  0  0  0  0  0  0  0  0
   13.0186   11.0102   18.0020 C   0  0  0  0  0  0  0  0  0  0  0  0
    8.6628    5.7088   21.8871 N   0  0  0  0  0  0  0  0  0  0  0  0
    5.6516    3.5258   21.9140 C   0  0  0  0  0  0  0  0  0  0  0  0
   11.5863    9.6815   19.4539 C   0  0  0  0  0  0  0  0  0  0  0  0
   12.9648    4.1543   20.9205 C   0  0  0  0  0  0  0  0  0  0  0  0
    8.2089    3.6265   20.8929 C   0  0  0  0  0  0  0  0  0  0  0  0
    7.3827    2.5724   20.5432 C   0  0  0  0  0  0  0  0  0  0  0  0
   11.1529    7.2750   20.8025 C   0  0  0  0  0  0  0  0  0  0  0  0
   10.2573    8.3215   20.9827 C   0  0  0  0  0  0  0  0  0  0  0  0
   11.1606    5.9378   21.2366 N   0  0  0  0  0  0  0  0  0  0  0  0
    9.8932   11.6736   19.0677 O   0  0  0  0  0  0  0  0  0  0  0  0
    6.4470    4.5850   22.2321 C   0  0  0  0  0  0  0  0  0  0  0  0
    8.4619    6.9895   22.2968 C   0  0  0  0  0  0  0  0  0  0  0  0
   12.2747    7.5102   20.0420 C   0  0  0  0  0  0  0  0  0  0  0  0
   14.2544    6.2142   19.4191 C   0  0  0  0  0  0  0  0  0  0  0  0
   13.0695    6.3705   20.0375 N   0  0  0  0  0  0  0  0  0  0  0  0
    9.1913    8.0876   21.8361 N   0  0  0  0  0  0  0  0  0  0  0  0
   10.4739    9.4813   20.2889 C   0  0  0  0  0  0  0  0  0  0  0  0
    7.5551    7.1270   23.1200 O   0  0  0  0  0  0  0  0  0  0  0  0
  1 11  4  0
  1 21  4  0
  2  4  1  0
  2  8  1  0
  2 11  1  0
  3 10  4  0
  3 14  4  0
  4  5  1  0
  4 18  2  0
  6 12  1  0
  6 17  4  0
  6 23  4  0
  7  9  1  0
  7 13  4  0
  7 19  4  0
  9 20  1  0
 10 19  4  0
 11 25  4  0
 13 14  4  0
 15 16  4  0
 15 17  4  0
 15 21  4  0
 16 24  1  0
 16 25  4  0
 20 24  1  0
 20 26  2  0
 21 23  4  0
 22 23  1  0
M  END
$$$$

 Created by Python create_sdf_string function

 26 28  0  0  0  0  0  0  0  0999 V2000
   12.4616    8.6700   19.4180 N   0  0  0  0  0  0  0  0  0  0  0  0
   11.8329   10.8148   18.6769 N   0  0  0  0  0  0  0  0  0  0  0  0
    6.1021    2.5564   21.0678 C   0  0  0  0  0  0  0  0  0  0  0  0
   10.9097   11.8051   18.4804 C   0  0  0  0  0  0  0  0  0  0  0  0
   11.2280   12.9135   17.5669 C   0  0  0  0  0  0  0  0  0  0  0  0
   12.3782    5.4231   20.7777 C   0  0  0  0  0  0  0  0  0  0  0  0
    7.7365    4.6508   21.6987 C   0  0  0  0  0  0  0  0  0  0  0  0
   13.0186   11.0102   18.0020 C   0  0  0  0  0  0  0  0  0  0  0  0
    8.6628    5.7088   21.8871 N   0  0  0  0  0  0  0  0  0  0  0  0
    5.6516    3.5258   21.9140 C   0  0  0  0  0  0  0  0  0  0  0  0
   11.5863    9.6815   19.4539 C   0  0  0  0  0  0  0  0  0  0  0  0
   12.9648    4.1543   20.9205 C   0  0  0  0  0  0  0  0  0  0  0  0
    8.2089    3.6265   20.8929 C   0  0  0  0  0  0  0  0  0  0  0  0
    7.3827    2.5724   20.5432 C   0  0  0  0  0  0  0  0  0  0  0  0
   11.1529    7.2750   20.8025 C   0  0  0  0  0  0  0  0  0  0  0  0
   10.2573    8.3215   20.9827 C   0  0  0  0  0  0  0  0  0  0  0  0
   11.1606    5.9378   21.2366 N   0  0  0  0  0  0  0  0  0  0  0  0
    9.8932   11.6736   19.0677 O   0  0  0  0  0  0  0  0  0  0  0  0
    6.4470    4.5850   22.2321 C   0  0  0  0  0  0  0  0  0  0  0  0
    8.4619    6.9895   22.2968 C   0  0  0  0  0  0  0  0  0  0  0  0
   12.2747    7.5102   20.0420 C   0  0  0  0  0  0  0  0  0  0  0  0
   14.2544    6.2142   19.4191 C   0  0  0  0  0  0  0  0  0  0  0  0
   13.0695    6.3705   20.0375 N   0  0  0  0  0  0  0  0  0  0  0  0
    9.1913    8.0876   21.8361 N   0  0  0  0  0  0  0  0  0  0  0  0
   10.4739    9.4813   20.2889 C   0  0  0  0  0  0  0  0  0  0  0  0
    7.5551    7.1270   23.1200 O   0  0  0  0  0  0  0  0  0  0  0  0
  1 11  4  0
  1 21  4  0
  2  4  1  0
  2  8  1  0
  2 11  1  0
  3 10  4  0
  3 14  4  0
  4  5  1  0
  4 18  2  0
  6 12  1  0
  6 17  4  0
  6 23  4  0
  7  9  1  0
  7 13  4  0
  7 19  4  0
  9 20  1  0
 10 19  4  0
 11 25  4  0
 13 14  4  0
 15 16  4  0
 15 17  4  0
 15 21  4  0
 16 24  1  0
 16 25  4  0
 20 24  1  0
 20 26  2  0
 21 23  4  0
 22 23  1  0
M  END
$$$$

 Created by Python create_sdf_string function

 26 28  0  0  0  0  0  0  0  0999 V2000
   12.4616    8.6700   19.4180 N   0  0  0  0  0  0  0  0  0  0  0  0
   11.8329   10.8148   18.6769 N   0  0  0  0  0  0  0  0  0  0  0  0
    6.1021    2.5564   21.0678 C   0  0  0  0  0  0  0  0  0  0  0  0
   10.9097   11.8051   18.4804 C   0  0  0  0  0  0  0  0  0  0  0  0
   11.2280   12.9135   17.5669 C   0  0  0  0  0  0  0  0  0  0  0  0
   12.3782    5.4231   20.7777 C   0  0  0  0  0  0  0  0  0  0  0  0
    7.7365    4.6508   21.6987 C   0  0  0  0  0  0  0  0  0  0  0  0
   13.0186   11.0102   18.0020 C   0  0  0  0  0  0  0  0  0  0  0  0
    8.6628    5.7088   21.8871 N   0  0  0  0  0  0  0  0  0  0  0  0
    5.6516    3.5258   21.9140 C   0  0  0  0  0  0  0  0  0  0  0  0
   11.5863    9.6815   19.4539 C   0  0  0  0  0  0  0  0  0  0  0  0
   12.9648    4.1543   20.9205 C   0  0  0  0  0  0  0  0  0  0  0  0
    8.2089    3.6265   20.8929 C   0  0  0  0  0  0  0  0  0  0  0  0
    7.3827    2.5724   20.5432 C   0  0  0  0  0  0  0  0  0  0  0  0
   11.1529    7.2750   20.8025 C   0  0  0  0  0  0  0  0  0  0  0  0
   10.2573    8.3215   20.9827 C   0  0  0  0  0  0  0  0  0  0  0  0
   11.1606    5.9378   21.2366 N   0  0  0  0  0  0  0  0  0  0  0  0
    9.8932   11.6736   19.0677 O   0  0  0  0  0  0  0  0  0  0  0  0
    6.4470    4.5850   22.2321 C   0  0  0  0  0  0  0  0  0  0  0  0
    8.4619    6.9895   22.2968 C   0  0  0  0  0  0  0  0  0  0  0  0
   12.2747    7.5102   20.0420 C   0  0  0  0  0  0  0  0  0  0  0  0
   14.2544    6.2142   19.4191 C   0  0  0  0  0  0  0  0  0  0  0  0
   13.0695    6.3705   20.0375 N   0  0  0  0  0  0  0  0  0  0  0  0
    9.1913    8.0876   21.8361 N   0  0  0  0  0  0  0  0  0  0  0  0
   10.4739    9.4813   20.2889 C   0  0  0  0  0  0  0  0  0  0  0  0
    7.5551    7.1270   23.1200 O   0  0  0  0  0  0  0  0  0  0  0  0
  1 11  4  0
  1 21  4  0
  2  4  1  0
  2  8  1  0
  2 11  1  0
  3 10  4  0
  3 14  4  0
  4  5  1  0
  4 18  2  0
  6 12  1  0
  6 17  4  0
  6 23  4  0
  7  9  1  0
  7 13  4  0
  7 19  4  0
  9 20  1  0
 10 19  4  0
 11 25  4  0
 13 14  4  0
 15 16  4  0
 15 17  4  0
 15 21  4  0
 16 24  1  0
 16 25  4  0
 20 24  1  0
 20 26  2  0
 21 23  4  0
 22 23  1  0
M  END
$$$$

 Created by Python create_sdf_string function

 26 28  0  0  0  0  0  0  0  0999 V2000
   12.4616    8.6700   19.4180 N   0  0  0  0  0  0  0  0  0  0  0  0
   11.8329   10.8148   18.6769 N   0  0  0  0  0  0  0  0  0  0  0  0
    6.1021    2.5564   21.0678 C   0  0  0  0  0  0  0  0  0  0  0  0
   10.9097   11.8051   18.4804 C   0  0  0  0  0  0  0  0  0  0  0  0
   11.2280   12.9135   17.5669 C   0  0  0  0  0  0  0  0  0  0  0  0
   12.3782    5.4231   20.7777 C   0  0  0  0  0  0  0  0  0  0  0  0
    7.7365    4.6508   21.6987 C   0  0  0  0  0  0  0  0  0  0  0  0
   13.0186   11.0102   18.0020 C   0  0  0  0  0  0  0  0  0  0  0  0
    8.6628    5.7088   21.8871 N   0  0  0  0  0  0  0  0  0  0  0  0
    5.6516    3.5258   21.9140 C   0  0  0  0  0  0  0  0  0  0  0  0
   11.5863    9.6815   19.4539 C   0  0  0  0  0  0  0  0  0  0  0  0
   12.9648    4.1543   20.9205 C   0  0  0  0  0  0  0  0  0  0  0  0
    8.2089    3.6265   20.8929 C   0  0  0  0  0  0  0  0  0  0  0  0
    7.3827    2.5724   20.5432 C   0  0  0  0  0  0  0  0  0  0  0  0
   11.1529    7.2750   20.8025 C   0  0  0  0  0  0  0  0  0  0  0  0
   10.2573    8.3215   20.9827 C   0  0  0  0  0  0  0  0  0  0  0  0
   11.1606    5.9378   21.2366 N   0  0  0  0  0  0  0  0  0  0  0  0
    9.8932   11.6736   19.0677 O   0  0  0  0  0  0  0  0  0  0  0  0
    6.4470    4.5850   22.2321 C   0  0  0  0  0  0  0  0  0  0  0  0
    8.4619    6.9895   22.2968 C   0  0  0  0  0  0  0  0  0  0  0  0
   12.2747    7.5102   20.0420 C   0  0  0  0  0  0  0  0  0  0  0  0
   14.2544    6.2142   19.4191 C   0  0  0  0  0  0  0  0  0  0  0  0
   13.0695    6.3705   20.0375 N   0  0  0  0  0  0  0  0  0  0  0  0
    9.1913    8.0876   21.8361 N   0  0  0  0  0  0  0  0  0  0  0  0
   10.4739    9.4813   20.2889 C   0  0  0  0  0  0  0  0  0  0  0  0
    7.5551    7.1270   23.1200 O   0  0  0  0  0  0  0  0  0  0  0  0
  1 11  4  0
  1 21  4  0
  2  4  1  0
  2  8  1  0
  2 11  1  0
  3 10  4  0
  3 14  4  0
  4  5  1  0
  4 18  2  0
  6 12  1  0
  6 17  4  0
  6 23  4  0
  7  9  1  0
  7 13  4  0
  7 19  4  0
  9 20  1  0
 10 19  4  0
 11 25  4  0
 13 14  4  0
 15 16  4  0
 15 17  4  0
 15 21  4  0
 16 24  1  0
 16 25  4  0
 20 24  1  0
 20 26  2  0
 21 23  4  0
 22 23  1  0
M  END
$$$$

 Created by Python create_sdf_string function

 26 28  0  0  0  0  0  0  0  0999 V2000
   12.4616    8.6700   19.4180 N   0  0  0  0  0  0  0  0  0  0  0  0
   11.8329   10.8148   18.6769 N   0  0  0  0  0  0  0  0  0  0  0  0
    6.1021    2.5564   21.0678 C   0  0  0  0  0  0  0  0  0  0  0  0
   10.9097   11.8051   18.4804 C   0  0  0  0  0  0  0  0  0  0  0  0
   11.2280   12.9135   17.5669 C   0  0  0  0  0  0  0  0  0  0  0  0
   12.3782    5.4231   20.7777 C   0  0  0  0  0  0  0  0  0  0  0  0
    7.7365    4.6508   21.6987 C   0  0  0  0  0  0  0  0  0  0  0  0
   13.0186   11.0102   18.0020 C   0  0  0  0  0  0  0  0  0  0  0  0
    8.6628    5.7088   21.8871 N   0  0  0  0  0  0  0  0  0  0  0  0
    5.6516    3.5258   21.9140 C   0  0  0  0  0  0  0  0  0  0  0  0
   11.5863    9.6815   19.4539 C   0  0  0  0  0  0  0  0  0  0  0  0
   12.9648    4.1543   20.9205 C   0  0  0  0  0  0  0  0  0  0  0  0
    8.2089    3.6265   20.8929 C   0  0  0  0  0  0  0  0  0  0  0  0
    7.3827    2.5724   20.5432 C   0  0  0  0  0  0  0  0  0  0  0  0
   11.1529    7.2750   20.8025 C   0  0  0  0  0  0  0  0  0  0  0  0
   10.2573    8.3215   20.9827 C   0  0  0  0  0  0  0  0  0  0  0  0
   11.1606    5.9378   21.2366 N   0  0  0  0  0  0  0  0  0  0  0  0
    9.8932   11.6736   19.0677 O   0  0  0  0  0  0  0  0  0  0  0  0
    6.4470    4.5850   22.2321 C   0  0  0  0  0  0  0  0  0  0  0  0
    8.4619    6.9895   22.2968 C   0  0  0  0  0  0  0  0  0  0  0  0
   12.2747    7.5102   20.0420 C   0  0  0  0  0  0  0  0  0  0  0  0
   14.2544    6.2142   19.4191 C   0  0  0  0  0  0  0  0  0  0  0  0
   13.0695    6.3705   20.0375 N   0  0  0  0  0  0  0  0  0  0  0  0
    9.1913    8.0876   21.8361 N   0  0  0  0  0  0  0  0  0  0  0  0
   10.4739    9.4813   20.2889 C   0  0  0  0  0  0  0  0  0  0  0  0
    7.5551    7.1270   23.1200 O   0  0  0  0  0  0  0  0  0  0  0  0
  1 11  4  0
  1 21  4  0
  2  4  1  0
  2  8  1  0
  2 11  1  0
  3 10  4  0
  3 14  4  0
  4  5  1  0
  4 18  2  0
  6 12  1  0
  6 17  4  0
  6 23  4  0
  7  9  1  0
  7 13  4  0
  7 19  4  0
  9 20  1  0
 10 19  4  0
 11 25  4  0
 13 14  4  0
 15 16  4  0
 15 17  4  0
 15 21  4  0
 16 24  1  0
 16 25  4  0
 20 24  1  0
 20 26  2  0
 21 23  4  0
 22 23  1  0
M  END
$$$$

 Created by Python create_sdf_string function

 26 28  0  0  0  0  0  0  0  0999 V2000
   12.4616    8.6700   19.4180 N   0  0  0  0  0  0  0  0  0  0  0  0
   11.8329   10.8148   18.6769 N   0  0  0  0  0  0  0  0  0  0  0  0
    6.1021    2.5564   21.0678 C   0  0  0  0  0  0  0  0  0  0  0  0
   10.9097   11.8051   18.4804 C   0  0  0  0  0  0  0  0  0  0  0  0
   11.2280   12.9135   17.5669 C   0  0  0  0  0  0  0  0  0  0  0  0
   12.3782    5.4231   20.7777 C   0  0  0  0  0  0  0  0  0  0  0  0
    7.7365    4.6508   21.6987 C   0  0  0  0  0  0  0  0  0  0  0  0
   13.0186   11.0102   18.0020 C   0  0  0  0  0  0  0  0  0  0  0  0
    8.6628    5.7088   21.8871 N   0  0  0  0  0  0  0  0  0  0  0  0
    5.6516    3.5258   21.9140 C   0  0  0  0  0  0  0  0  0  0  0  0
   11.5863    9.6815   19.4539 C   0  0  0  0  0  0  0  0  0  0  0  0
   12.9648    4.1543   20.9205 C   0  0  0  0  0  0  0  0  0  0  0  0
    8.2089    3.6265   20.8929 C   0  0  0  0  0  0  0  0  0  0  0  0
    7.3827    2.5724   20.5432 C   0  0  0  0  0  0  0  0  0  0  0  0
   11.1529    7.2750   20.8025 C   0  0  0  0  0  0  0  0  0  0  0  0
   10.2573    8.3215   20.9827 C   0  0  0  0  0  0  0  0  0  0  0  0
   11.1606    5.9378   21.2366 N   0  0  0  0  0  0  0  0  0  0  0  0
    9.8932   11.6736   19.0677 O   0  0  0  0  0  0  0  0  0  0  0  0
    6.4470    4.5850   22.2321 C   0  0  0  0  0  0  0  0  0  0  0  0
    8.4619    6.9895   22.2968 C   0  0  0  0  0  0  0  0  0  0  0  0
   12.2747    7.5102   20.0420 C   0  0  0  0  0  0  0  0  0  0  0  0
   14.2544    6.2142   19.4191 C   0  0  0  0  0  0  0  0  0  0  0  0
   13.0695    6.3705   20.0375 N   0  0  0  0  0  0  0  0  0  0  0  0
    9.1913    8.0876   21.8361 N   0  0  0  0  0  0  0  0  0  0  0  0
   10.4739    9.4813   20.2889 C   0  0  0  0  0  0  0  0  0  0  0  0
    7.5551    7.1270   23.1200 O   0  0  0  0  0  0  0  0  0  0  0  0
  1 11  4  0
  1 21  4  0
  2  4  1  0
  2  8  1  0
  2 11  1  0
  3 10  4  0
  3 14  4  0
  4  5  1  0
  4 18  2  0
  6 12  1  0
  6 17  4  0
  6 23  4  0
  7  9  1  0
  7 13  4  0
  7 19  4  0
  9 20  1  0
 10 19  4  0
 11 25  4  0
 13 14  4  0
 15 16  4  0
 15 17  4  0
 15 21  4  0
 16 24  1  0
 16 25  4  0
 20 24  1  0
 20 26  2  0
 21 23  4  0
 22 23  1  0
M  END
$$$$

 Created by Python create_sdf_string function

 26 28  0  0  0  0  0  0  0  0999 V2000
   12.4616    8.6700   19.4180 N   0  0  0  0  0  0  0  0  0  0  0  0
   11.8329   10.8148   18.6769 N   0  0  0  0  0  0  0  0  0  0  0  0
    6.1021    2.5564   21.0678 C   0  0  0  0  0  0  0  0  0  0  0  0
   10.9097   11.8051   18.4804 C   0  0  0  0  0  0  0  0  0  0  0  0
   11.2280   12.9135   17.5669 C   0  0  0  0  0  0  0  0  0  0  0  0
   12.3782    5.4231   20.7777 C   0  0  0  0  0  0  0  0  0  0  0  0
    7.7365    4.6508   21.6987 C   0  0  0  0  0  0  0  0  0  0  0  0
   13.0186   11.0102   18.0020 C   0  0  0  0  0  0  0  0  0  0  0  0
    8.6628    5.7088   21.8871 N   0  0  0  0  0  0  0  0  0  0  0  0
    5.6516    3.5258   21.9140 C   0  0  0  0  0  0  0  0  0  0  0  0
   11.5863    9.6815   19.4539 C   0  0  0  0  0  0  0  0  0  0  0  0
   12.9648    4.1543   20.9205 C   0  0  0  0  0  0  0  0  0  0  0  0
    8.2089    3.6265   20.8929 C   0  0  0  0  0  0  0  0  0  0  0  0
    7.3827    2.5724   20.5432 C   0  0  0  0  0  0  0  0  0  0  0  0
   11.1529    7.2750   20.8025 C   0  0  0  0  0  0  0  0  0  0  0  0
   10.2573    8.3215   20.9827 C   0  0  0  0  0  0  0  0  0  0  0  0
   11.1606    5.9378   21.2366 N   0  0  0  0  0  0  0  0  0  0  0  0
    9.8932   11.6736   19.0677 O   0  0  0  0  0  0  0  0  0  0  0  0
    6.4470    4.5850   22.2321 C   0  0  0  0  0  0  0  0  0  0  0  0
    8.4619    6.9895   22.2968 C   0  0  0  0  0  0  0  0  0  0  0  0
   12.2747    7.5102   20.0420 C   0  0  0  0  0  0  0  0  0  0  0  0
   14.2544    6.2142   19.4191 C   0  0  0  0  0  0  0  0  0  0  0  0
   13.0695    6.3705   20.0375 N   0  0  0  0  0  0  0  0  0  0  0  0
    9.1913    8.0876   21.8361 N   0  0  0  0  0  0  0  0  0  0  0  0
   10.4739    9.4813   20.2889 C   0  0  0  0  0  0  0  0  0  0  0  0
    7.5551    7.1270   23.1200 O   0  0  0  0  0  0  0  0  0  0  0  0
  1 11  4  0
  1 21  4  0
  2  4  1  0
  2  8  1  0
  2 11  1  0
  3 10  4  0
  3 14  4  0
  4  5  1  0
  4 18  2  0
  6 12  1  0
  6 17  4  0
  6 23  4  0
  7  9  1  0
  7 13  4  0
  7 19  4  0
  9 20  1  0
 10 19  4  0
 11 25  4  0
 13 14  4  0
 15 16  4  0
 15 17  4  0
 15 21  4  0
 16 24  1  0
 16 25  4  0
 20 24  1  0
 20 26  2  0
 21 23  4  0
 22 23  1  0
M  END
$$$$

 Created by Python create_sdf_string function

 26 28  0  0  0  0  0  0  0  0999 V2000
   12.4616    8.6700   19.4180 N   0  0  0  0  0  0  0  0  0  0  0  0
   11.8329   10.8148   18.6769 N   0  0  0  0  0  0  0  0  0  0  0  0
    6.1021    2.5564   21.0678 C   0  0  0  0  0  0  0  0  0  0  0  0
   10.9097   11.8051   18.4804 C   0  0  0  0  0  0  0  0  0  0  0  0
   11.2280   12.9135   17.5669 C   0  0  0  0  0  0  0  0  0  0  0  0
   12.3782    5.4231   20.7777 C   0  0  0  0  0  0  0  0  0  0  0  0
    7.7365    4.6508   21.6987 C   0  0  0  0  0  0  0  0  0  0  0  0
   13.0186   11.0102   18.0020 C   0  0  0  0  0  0  0  0  0  0  0  0
    8.6628    5.7088   21.8871 N   0  0  0  0  0  0  0  0  0  0  0  0
    5.6516    3.5258   21.9140 C   0  0  0  0  0  0  0  0  0  0  0  0
   11.5863    9.6815   19.4539 C   0  0  0  0  0  0  0  0  0  0  0  0
   12.9648    4.1543   20.9205 C   0  0  0  0  0  0  0  0  0  0  0  0
    8.2089    3.6265   20.8929 C   0  0  0  0  0  0  0  0  0  0  0  0
    7.3827    2.5724   20.5432 C   0  0  0  0  0  0  0  0  0  0  0  0
   11.1529    7.2750   20.8025 C   0  0  0  0  0  0  0  0  0  0  0  0
   10.2573    8.3215   20.9827 C   0  0  0  0  0  0  0  0  0  0  0  0
   11.1606    5.9378   21.2366 N   0  0  0  0  0  0  0  0  0  0  0  0
    9.8932   11.6736   19.0677 O   0  0  0  0  0  0  0  0  0  0  0  0
    6.4470    4.5850   22.2321 C   0  0  0  0  0  0  0  0  0  0  0  0
    8.4619    6.9895   22.2968 C   0  0  0  0  0  0  0  0  0  0  0  0
   12.2747    7.5102   20.0420 C   0  0  0  0  0  0  0  0  0  0  0  0
   14.2544    6.2142   19.4191 C   0  0  0  0  0  0  0  0  0  0  0  0
   13.0695    6.3705   20.0375 N   0  0  0  0  0  0  0  0  0  0  0  0
    9.1913    8.0876   21.8361 N   0  0  0  0  0  0  0  0  0  0  0  0
   10.4739    9.4813   20.2889 C   0  0  0  0  0  0  0  0  0  0  0  0
    7.5551    7.1270   23.1200 O   0  0  0  0  0  0  0  0  0  0  0  0
  1 11  4  0
  1 21  4  0
  2  4  1  0
  2  8  1  0
  2 11  1  0
  3 10  4  0
  3 14  4  0
  4  5  1  0
  4 18  2  0
  6 12  1  0
  6 17  4  0
  6 23  4  0
  7  9  1  0
  7 13  4  0
  7 19  4  0
  9 20  1  0
 10 19  4  0
 11 25  4  0
 13 14  4  0
 15 16  4  0
 15 17  4  0
 15 21  4  0
 16 24  1  0
 16 25  4  0
 20 24  1  0
 20 26  2  0
 21 23  4  0
 22 23  1  0
M  END
$$$$

 Created by Python create_sdf_string function

 26 28  0  0  0  0  0  0  0  0999 V2000
   12.4616    8.6700   19.4180 N   0  0  0  0  0  0  0  0  0  0  0  0
   11.8329   10.8148   18.6769 N   0  0  0  0  0  0  0  0  0  0  0  0
    6.1021    2.5564   21.0678 C   0  0  0  0  0  0  0  0  0  0  0  0
   10.9097   11.8051   18.4804 C   0  0  0  0  0  0  0  0  0  0  0  0
   11.2280   12.9135   17.5669 C   0  0  0  0  0  0  0  0  0  0  0  0
   12.3782    5.4231   20.7777 C   0  0  0  0  0  0  0  0  0  0  0  0
    7.7365    4.6508   21.6987 C   0  0  0  0  0  0  0  0  0  0  0  0
   13.0186   11.0102   18.0020 C   0  0  0  0  0  0  0  0  0  0  0  0
    8.6628    5.7088   21.8871 N   0  0  0  0  0  0  0  0  0  0  0  0
    5.6516    3.5258   21.9140 C   0  0  0  0  0  0  0  0  0  0  0  0
   11.5863    9.6815   19.4539 C   0  0  0  0  0  0  0  0  0  0  0  0
   12.9648    4.1543   20.9205 C   0  0  0  0  0  0  0  0  0  0  0  0
    8.2089    3.6265   20.8929 C   0  0  0  0  0  0  0  0  0  0  0  0
    7.3827    2.5724   20.5432 C   0  0  0  0  0  0  0  0  0  0  0  0
   11.1529    7.2750   20.8025 C   0  0  0  0  0  0  0  0  0  0  0  0
   10.2573    8.3215   20.9827 C   0  0  0  0  0  0  0  0  0  0  0  0
   11.1606    5.9378   21.2366 N   0  0  0  0  0  0  0  0  0  0  0  0
    9.8932   11.6736   19.0677 O   0  0  0  0  0  0  0  0  0  0  0  0
    6.4470    4.5850   22.2321 C   0  0  0  0  0  0  0  0  0  0  0  0
    8.4619    6.9895   22.2968 C   0  0  0  0  0  0  0  0  0  0  0  0
   12.2747    7.5102   20.0420 C   0  0  0  0  0  0  0  0  0  0  0  0
   14.2544    6.2142   19.4191 C   0  0  0  0  0  0  0  0  0  0  0  0
   13.0695    6.3705   20.0375 N   0  0  0  0  0  0  0  0  0  0  0  0
    9.1913    8.0876   21.8361 N   0  0  0  0  0  0  0  0  0  0  0  0
   10.4739    9.4813   20.2889 C   0  0  0  0  0  0  0  0  0  0  0  0
    7.5551    7.1270   23.1200 O   0  0  0  0  0  0  0  0  0  0  0  0
  1 11  4  0
  1 21  4  0
  2  4  1  0
  2  8  1  0
  2 11  1  0
  3 10  4  0
  3 14  4  0
  4  5  1  0
  4 18  2  0
  6 12  1  0
  6 17  4  0
  6 23  4  0
  7  9  1  0
  7 13  4  0
  7 19  4  0
  9 20  1  0
 10 19  4  0
 11 25  4  0
 13 14  4  0
 15 16  4  0
 15 17  4  0
 15 21  4  0
 16 24  1  0
 16 25  4  0
 20 24  1  0
 20 26  2  0
 21 23  4  0
 22 23  1  0
M  END
$$$$

 Created by Python create_sdf_string function

 26 28  0  0  0  0  0  0  0  0999 V2000
   12.4616    8.6700   19.4180 N   0  0  0  0  0  0  0  0  0  0  0  0
   11.8329   10.8148   18.6769 N   0  0  0  0  0  0  0  0  0  0  0  0
    6.1021    2.5564   21.0678 C   0  0  0  0  0  0  0  0  0  0  0  0
   10.9097   11.8051   18.4804 C   0  0  0  0  0  0  0  0  0  0  0  0
   11.2280   12.9135   17.5669 C   0  0  0  0  0  0  0  0  0  0  0  0
   12.3782    5.4231   20.7777 C   0  0  0  0  0  0  0  0  0  0  0  0
    7.7365    4.6508   21.6987 C   0  0  0  0  0  0  0  0  0  0  0  0
   13.0186   11.0102   18.0020 C   0  0  0  0  0  0  0  0  0  0  0  0
    8.6628    5.7088   21.8871 N   0  0  0  0  0  0  0  0  0  0  0  0
    5.6516    3.5258   21.9140 C   0  0  0  0  0  0  0  0  0  0  0  0
   11.5863    9.6815   19.4539 C   0  0  0  0  0  0  0  0  0  0  0  0
   12.9648    4.1543   20.9205 C   0  0  0  0  0  0  0  0  0  0  0  0
    8.2089    3.6265   20.8929 C   0  0  0  0  0  0  0  0  0  0  0  0
    7.3827    2.5724   20.5432 C   0  0  0  0  0  0  0  0  0  0  0  0
   11.1529    7.2750   20.8025 C   0  0  0  0  0  0  0  0  0  0  0  0
   10.2573    8.3215   20.9827 C   0  0  0  0  0  0  0  0  0  0  0  0
   11.1606    5.9378   21.2366 N   0  0  0  0  0  0  0  0  0  0  0  0
    9.8932   11.6736   19.0677 O   0  0  0  0  0  0  0  0  0  0  0  0
    6.4470    4.5850   22.2321 C   0  0  0  0  0  0  0  0  0  0  0  0
    8.4619    6.9895   22.2968 C   0  0  0  0  0  0  0  0  0  0  0  0
   12.2747    7.5102   20.0420 C   0  0  0  0  0  0  0  0  0  0  0  0
   14.2544    6.2142   19.4191 C   0  0  0  0  0  0  0  0  0  0  0  0
   13.0695    6.3705   20.0375 N   0  0  0  0  0  0  0  0  0  0  0  0
    9.1913    8.0876   21.8361 N   0  0  0  0  0  0  0  0  0  0  0  0
   10.4739    9.4813   20.2889 C   0  0  0  0  0  0  0  0  0  0  0  0
    7.5551    7.1270   23.1200 O   0  0  0  0  0  0  0  0  0  0  0  0
  1 11  4  0
  1 21  4  0
  2  4  1  0
  2  8  1  0
  2 11  1  0
  3 10  4  0
  3 14  4  0
  4  5  1  0
  4 18  2  0
  6 12  1  0
  6 17  4  0
  6 23  4  0
  7  9  1  0
  7 13  4  0
  7 19  4  0
  9 20  1  0
 10 19  4  0
 11 25  4  0
 13 14  4  0
 15 16  4  0
 15 17  4  0
 15 21  4  0
 16 24  1  0
 16 25  4  0
 20 24  1  0
 20 26  2  0
 21 23  4  0
 22 23  1  0
M  END
$$$$

 Created by Python create_sdf_string function

 26 28  0  0  0  0  0  0  0  0999 V2000
   12.4616    8.6700   19.4180 N   0  0  0  0  0  0  0  0  0  0  0  0
   11.8329   10.8148   18.6769 N   0  0  0  0  0  0  0  0  0  0  0  0
    6.1021    2.5564   21.0678 C   0  0  0  0  0  0  0  0  0  0  0  0
   10.9097   11.8051   18.4804 C   0  0  0  0  0  0  0  0  0  0  0  0
   11.2280   12.9135   17.5669 C   0  0  0  0  0  0  0  0  0  0  0  0
   12.3782    5.4231   20.7777 C   0  0  0  0  0  0  0  0  0  0  0  0
    7.7365    4.6508   21.6987 C   0  0  0  0  0  0  0  0  0  0  0  0
   13.0186   11.0102   18.0020 C   0  0  0  0  0  0  0  0  0  0  0  0
    8.6628    5.7088   21.8871 N   0  0  0  0  0  0  0  0  0  0  0  0
    5.6516    3.5258   21.9140 C   0  0  0  0  0  0  0  0  0  0  0  0
   11.5863    9.6815   19.4539 C   0  0  0  0  0  0  0  0  0  0  0  0
   12.9648    4.1543   20.9205 C   0  0  0  0  0  0  0  0  0  0  0  0
    8.2089    3.6265   20.8929 C   0  0  0  0  0  0  0  0  0  0  0  0
    7.3827    2.5724   20.5432 C   0  0  0  0  0  0  0  0  0  0  0  0
   11.1529    7.2750   20.8025 C   0  0  0  0  0  0  0  0  0  0  0  0
   10.2573    8.3215   20.9827 C   0  0  0  0  0  0  0  0  0  0  0  0
   11.1606    5.9378   21.2366 N   0  0  0  0  0  0  0  0  0  0  0  0
    9.8932   11.6736   19.0677 O   0  0  0  0  0  0  0  0  0  0  0  0
    6.4470    4.5850   22.2321 C   0  0  0  0  0  0  0  0  0  0  0  0
    8.4619    6.9895   22.2968 C   0  0  0  0  0  0  0  0  0  0  0  0
   12.2747    7.5102   20.0420 C   0  0  0  0  0  0  0  0  0  0  0  0
   14.2544    6.2142   19.4191 C   0  0  0  0  0  0  0  0  0  0  0  0
   13.0695    6.3705   20.0375 N   0  0  0  0  0  0  0  0  0  0  0  0
    9.1913    8.0876   21.8361 N   0  0  0  0  0  0  0  0  0  0  0  0
   10.4739    9.4813   20.2889 C   0  0  0  0  0  0  0  0  0  0  0  0
    7.5551    7.1270   23.1200 O   0  0  0  0  0  0  0  0  0  0  0  0
  1 11  4  0
  1 21  4  0
  2  4  1  0
  2  8  1  0
  2 11  1  0
  3 10  4  0
  3 14  4  0
  4  5  1  0
  4 18  2  0
  6 12  1  0
  6 17  4  0
  6 23  4  0
  7  9  1  0
  7 13  4  0
  7 19  4  0
  9 20  1  0
 10 19  4  0
 11 25  4  0
 13 14  4  0
 15 16  4  0
 15 17  4  0
 15 21  4  0
 16 24  1  0
 16 25  4  0
 20 24  1  0
 20 26  2  0
 21 23  4  0
 22 23  1  0
M  END
$$$$

 Created by Python create_sdf_string function

 26 28  0  0  0  0  0  0  0  0999 V2000
   12.4616    8.6700   19.4180 N   0  0  0  0  0  0  0  0  0  0  0  0
   11.8329   10.8148   18.6769 N   0  0  0  0  0  0  0  0  0  0  0  0
    6.1021    2.5564   21.0678 C   0  0  0  0  0  0  0  0  0  0  0  0
   10.9097   11.8051   18.4804 C   0  0  0  0  0  0  0  0  0  0  0  0
   11.2280   12.9135   17.5669 C   0  0  0  0  0  0  0  0  0  0  0  0
   12.3782    5.4231   20.7777 C   0  0  0  0  0  0  0  0  0  0  0  0
    7.7365    4.6508   21.6987 C   0  0  0  0  0  0  0  0  0  0  0  0
   13.0186   11.0102   18.0020 C   0  0  0  0  0  0  0  0  0  0  0  0
    8.6628    5.7088   21.8871 N   0  0  0  0  0  0  0  0  0  0  0  0
    5.6516    3.5258   21.9140 C   0  0  0  0  0  0  0  0  0  0  0  0
   11.5863    9.6815   19.4539 C   0  0  0  0  0  0  0  0  0  0  0  0
   12.9648    4.1543   20.9205 C   0  0  0  0  0  0  0  0  0  0  0  0
    8.2089    3.6265   20.8929 C   0  0  0  0  0  0  0  0  0  0  0  0
    7.3827    2.5724   20.5432 C   0  0  0  0  0  0  0  0  0  0  0  0
   11.1529    7.2750   20.8025 C   0  0  0  0  0  0  0  0  0  0  0  0
   10.2573    8.3215   20.9827 C   0  0  0  0  0  0  0  0  0  0  0  0
   11.1606    5.9378   21.2366 N   0  0  0  0  0  0  0  0  0  0  0  0
    9.8932   11.6736   19.0677 O   0  0  0  0  0  0  0  0  0  0  0  0
    6.4470    4.5850   22.2321 C   0  0  0  0  0  0  0  0  0  0  0  0
    8.4619    6.9895   22.2968 C   0  0  0  0  0  0  0  0  0  0  0  0
   12.2747    7.5102   20.0420 C   0  0  0  0  0  0  0  0  0  0  0  0
   14.2544    6.2142   19.4191 C   0  0  0  0  0  0  0  0  0  0  0  0
   13.0695    6.3705   20.0375 N   0  0  0  0  0  0  0  0  0  0  0  0
    9.1913    8.0876   21.8361 N   0  0  0  0  0  0  0  0  0  0  0  0
   10.4739    9.4813   20.2889 C   0  0  0  0  0  0  0  0  0  0  0  0
    7.5551    7.1270   23.1200 O   0  0  0  0  0  0  0  0  0  0  0  0
  1 11  4  0
  1 21  4  0
  2  4  1  0
  2  8  1  0
  2 11  1  0
  3 10  4  0
  3 14  4  0
  4  5  1  0
  4 18  2  0
  6 12  1  0
  6 17  4  0
  6 23  4  0
  7  9  1  0
  7 13  4  0
  7 19  4  0
  9 20  1  0
 10 19  4  0
 11 25  4  0
 13 14  4  0
 15 16  4  0
 15 17  4  0
 15 21  4  0
 16 24  1  0
 16 25  4  0
 20 24  1  0
 20 26  2  0
 21 23  4  0
 22 23  1  0
M  END
$$$$

 Created by Python create_sdf_string function

 26 28  0  0  0  0  0  0  0  0999 V2000
   12.4616    8.6700   19.4180 N   0  0  0  0  0  0  0  0  0  0  0  0
   11.8329   10.8148   18.6769 N   0  0  0  0  0  0  0  0  0  0  0  0
    6.1021    2.5564   21.0678 C   0  0  0  0  0  0  0  0  0  0  0  0
   10.9097   11.8051   18.4804 C   0  0  0  0  0  0  0  0  0  0  0  0
   11.2280   12.9135   17.5669 C   0  0  0  0  0  0  0  0  0  0  0  0
   12.3782    5.4231   20.7777 C   0  0  0  0  0  0  0  0  0  0  0  0
    7.7365    4.6508   21.6987 C   0  0  0  0  0  0  0  0  0  0  0  0
   13.0186   11.0102   18.0020 C   0  0  0  0  0  0  0  0  0  0  0  0
    8.6628    5.7088   21.8871 N   0  0  0  0  0  0  0  0  0  0  0  0
    5.6516    3.5258   21.9140 C   0  0  0  0  0  0  0  0  0  0  0  0
   11.5863    9.6815   19.4539 C   0  0  0  0  0  0  0  0  0  0  0  0
   12.9648    4.1543   20.9205 C   0  0  0  0  0  0  0  0  0  0  0  0
    8.2089    3.6265   20.8929 C   0  0  0  0  0  0  0  0  0  0  0  0
    7.3827    2.5724   20.5432 C   0  0  0  0  0  0  0  0  0  0  0  0
   11.1529    7.2750   20.8025 C   0  0  0  0  0  0  0  0  0  0  0  0
   10.2573    8.3215   20.9827 C   0  0  0  0  0  0  0  0  0  0  0  0
   11.1606    5.9378   21.2366 N   0  0  0  0  0  0  0  0  0  0  0  0
    9.8932   11.6736   19.0677 O   0  0  0  0  0  0  0  0  0  0  0  0
    6.4470    4.5850   22.2321 C   0  0  0  0  0  0  0  0  0  0  0  0
    8.4619    6.9895   22.2968 C   0  0  0  0  0  0  0  0  0  0  0  0
   12.2747    7.5102   20.0420 C   0  0  0  0  0  0  0  0  0  0  0  0
   14.2544    6.2142   19.4191 C   0  0  0  0  0  0  0  0  0  0  0  0
   13.0695    6.3705   20.0375 N   0  0  0  0  0  0  0  0  0  0  0  0
    9.1913    8.0876   21.8361 N   0  0  0  0  0  0  0  0  0  0  0  0
   10.4739    9.4813   20.2889 C   0  0  0  0  0  0  0  0  0  0  0  0
    7.5551    7.1270   23.1200 O   0  0  0  0  0  0  0  0  0  0  0  0
  1 11  4  0
  1 21  4  0
  2  4  1  0
  2  8  1  0
  2 11  1  0
  3 10  4  0
  3 14  4  0
  4  5  1  0
  4 18  2  0
  6 12  1  0
  6 17  4  0
  6 23  4  0
  7  9  1  0
  7 13  4  0
  7 19  4  0
  9 20  1  0
 10 19  4  0
 11 25  4  0
 13 14  4  0
 15 16  4  0
 15 17  4  0
 15 21  4  0
 16 24  1  0
 16 25  4  0
 20 24  1  0
 20 26  2  0
 21 23  4  0
 22 23  1  0
M  END
$$$$

 Created by Python create_sdf_string function

 26 28  0  0  0  0  0  0  0  0999 V2000
   12.4616    8.6700   19.4180 N   0  0  0  0  0  0  0  0  0  0  0  0
   11.8329   10.8148   18.6769 N   0  0  0  0  0  0  0  0  0  0  0  0
    6.1021    2.5564   21.0678 C   0  0  0  0  0  0  0  0  0  0  0  0
   10.9097   11.8051   18.4804 C   0  0  0  0  0  0  0  0  0  0  0  0
   11.2280   12.9135   17.5669 C   0  0  0  0  0  0  0  0  0  0  0  0
   12.3782    5.4231   20.7777 C   0  0  0  0  0  0  0  0  0  0  0  0
    7.7365    4.6508   21.6987 C   0  0  0  0  0  0  0  0  0  0  0  0
   13.0186   11.0102   18.0020 C   0  0  0  0  0  0  0  0  0  0  0  0
    8.6628    5.7088   21.8871 N   0  0  0  0  0  0  0  0  0  0  0  0
    5.6516    3.5258   21.9140 C   0  0  0  0  0  0  0  0  0  0  0  0
   11.5863    9.6815   19.4539 C   0  0  0  0  0  0  0  0  0  0  0  0
   12.9648    4.1543   20.9205 C   0  0  0  0  0  0  0  0  0  0  0  0
    8.2089    3.6265   20.8929 C   0  0  0  0  0  0  0  0  0  0  0  0
    7.3827    2.5724   20.5432 C   0  0  0  0  0  0  0  0  0  0  0  0
   11.1529    7.2750   20.8025 C   0  0  0  0  0  0  0  0  0  0  0  0
   10.2573    8.3215   20.9827 C   0  0  0  0  0  0  0  0  0  0  0  0
   11.1606    5.9378   21.2366 N   0  0  0  0  0  0  0  0  0  0  0  0
    9.8932   11.6736   19.0677 O   0  0  0  0  0  0  0  0  0  0  0  0
    6.4470    4.5850   22.2321 C   0  0  0  0  0  0  0  0  0  0  0  0
    8.4619    6.9895   22.2968 C   0  0  0  0  0  0  0  0  0  0  0  0
   12.2747    7.5102   20.0420 C   0  0  0  0  0  0  0  0  0  0  0  0
   14.2544    6.2142   19.4191 C   0  0  0  0  0  0  0  0  0  0  0  0
   13.0695    6.3705   20.0375 N   0  0  0  0  0  0  0  0  0  0  0  0
    9.1913    8.0876   21.8361 N   0  0  0  0  0  0  0  0  0  0  0  0
   10.4739    9.4813   20.2889 C   0  0  0  0  0  0  0  0  0  0  0  0
    7.5551    7.1270   23.1200 O   0  0  0  0  0  0  0  0  0  0  0  0
  1 11  4  0
  1 21  4  0
  2  4  1  0
  2  8  1  0
  2 11  1  0
  3 10  4  0
  3 14  4  0
  4  5  1  0
  4 18  2  0
  6 12  1  0
  6 17  4  0
  6 23  4  0
  7  9  1  0
  7 13  4  0
  7 19  4  0
  9 20  1  0
 10 19  4  0
 11 25  4  0
 13 14  4  0
 15 16  4  0
 15 17  4  0
 15 21  4  0
 16 24  1  0
 16 25  4  0
 20 24  1  0
 20 26  2  0
 21 23  4  0
 22 23  1  0
M  END
$$$$

 Created by Python create_sdf_string function

 26 28  0  0  0  0  0  0  0  0999 V2000
   12.4616    8.6700   19.4180 N   0  0  0  0  0  0  0  0  0  0  0  0
   11.8329   10.8148   18.6769 N   0  0  0  0  0  0  0  0  0  0  0  0
    6.1021    2.5564   21.0678 C   0  0  0  0  0  0  0  0  0  0  0  0
   10.9097   11.8051   18.4804 C   0  0  0  0  0  0  0  0  0  0  0  0
   11.2280   12.9135   17.5669 C   0  0  0  0  0  0  0  0  0  0  0  0
   12.3782    5.4231   20.7777 C   0  0  0  0  0  0  0  0  0  0  0  0
    7.7365    4.6508   21.6987 C   0  0  0  0  0  0  0  0  0  0  0  0
   13.0186   11.0102   18.0020 C   0  0  0  0  0  0  0  0  0  0  0  0
    8.6628    5.7088   21.8871 N   0  0  0  0  0  0  0  0  0  0  0  0
    5.6516    3.5258   21.9140 C   0  0  0  0  0  0  0  0  0  0  0  0
   11.5863    9.6815   19.4539 C   0  0  0  0  0  0  0  0  0  0  0  0
   12.9648    4.1543   20.9205 C   0  0  0  0  0  0  0  0  0  0  0  0
    8.2089    3.6265   20.8929 C   0  0  0  0  0  0  0  0  0  0  0  0
    7.3827    2.5724   20.5432 C   0  0  0  0  0  0  0  0  0  0  0  0
   11.1529    7.2750   20.8025 C   0  0  0  0  0  0  0  0  0  0  0  0
   10.2573    8.3215   20.9827 C   0  0  0  0  0  0  0  0  0  0  0  0
   11.1606    5.9378   21.2366 N   0  0  0  0  0  0  0  0  0  0  0  0
    9.8932   11.6736   19.0677 O   0  0  0  0  0  0  0  0  0  0  0  0
    6.4470    4.5850   22.2321 C   0  0  0  0  0  0  0  0  0  0  0  0
    8.4619    6.9895   22.2968 C   0  0  0  0  0  0  0  0  0  0  0  0
   12.2747    7.5102   20.0420 C   0  0  0  0  0  0  0  0  0  0  0  0
   14.2544    6.2142   19.4191 C   0  0  0  0  0  0  0  0  0  0  0  0
   13.0695    6.3705   20.0375 N   0  0  0  0  0  0  0  0  0  0  0  0
    9.1913    8.0876   21.8361 N   0  0  0  0  0  0  0  0  0  0  0  0
   10.4739    9.4813   20.2889 C   0  0  0  0  0  0  0  0  0  0  0  0
    7.5551    7.1270   23.1200 O   0  0  0  0  0  0  0  0  0  0  0  0
  1 11  4  0
  1 21  4  0
  2  4  1  0
  2  8  1  0
  2 11  1  0
  3 10  4  0
  3 14  4  0
  4  5  1  0
  4 18  2  0
  6 12  1  0
  6 17  4  0
  6 23  4  0
  7  9  1  0
  7 13  4  0
  7 19  4  0
  9 20  1  0
 10 19  4  0
 11 25  4  0
 13 14  4  0
 15 16  4  0
 15 17  4  0
 15 21  4  0
 16 24  1  0
 16 25  4  0
 20 24  1  0
 20 26  2  0
 21 23  4  0
 22 23  1  0
M  END
$$$$

 Created by Python create_sdf_string function

 26 28  0  0  0  0  0  0  0  0999 V2000
   12.4616    8.6700   19.4180 N   0  0  0  0  0  0  0  0  0  0  0  0
   11.8329   10.8148   18.6769 N   0  0  0  0  0  0  0  0  0  0  0  0
    6.1021    2.5564   21.0678 C   0  0  0  0  0  0  0  0  0  0  0  0
   10.9097   11.8051   18.4804 C   0  0  0  0  0  0  0  0  0  0  0  0
   11.2280   12.9135   17.5669 C   0  0  0  0  0  0  0  0  0  0  0  0
   12.3782    5.4231   20.7777 C   0  0  0  0  0  0  0  0  0  0  0  0
    7.7365    4.6508   21.6987 C   0  0  0  0  0  0  0  0  0  0  0  0
   13.0186   11.0102   18.0020 C   0  0  0  0  0  0  0  0  0  0  0  0
    8.6628    5.7088   21.8871 N   0  0  0  0  0  0  0  0  0  0  0  0
    5.6516    3.5258   21.9140 C   0  0  0  0  0  0  0  0  0  0  0  0
   11.5863    9.6815   19.4539 C   0  0  0  0  0  0  0  0  0  0  0  0
   12.9648    4.1543   20.9205 C   0  0  0  0  0  0  0  0  0  0  0  0
    8.2089    3.6265   20.8929 C   0  0  0  0  0  0  0  0  0  0  0  0
    7.3827    2.5724   20.5432 C   0  0  0  0  0  0  0  0  0  0  0  0
   11.1529    7.2750   20.8025 C   0  0  0  0  0  0  0  0  0  0  0  0
   10.2573    8.3215   20.9827 C   0  0  0  0  0  0  0  0  0  0  0  0
   11.1606    5.9378   21.2366 N   0  0  0  0  0  0  0  0  0  0  0  0
    9.8932   11.6736   19.0677 O   0  0  0  0  0  0  0  0  0  0  0  0
    6.4470    4.5850   22.2321 C   0  0  0  0  0  0  0  0  0  0  0  0
    8.4619    6.9895   22.2968 C   0  0  0  0  0  0  0  0  0  0  0  0
   12.2747    7.5102   20.0420 C   0  0  0  0  0  0  0  0  0  0  0  0
   14.2544    6.2142   19.4191 C   0  0  0  0  0  0  0  0  0  0  0  0
   13.0695    6.3705   20.0375 N   0  0  0  0  0  0  0  0  0  0  0  0
    9.1913    8.0876   21.8361 N   0  0  0  0  0  0  0  0  0  0  0  0
   10.4739    9.4813   20.2889 C   0  0  0  0  0  0  0  0  0  0  0  0
    7.5551    7.1270   23.1200 O   0  0  0  0  0  0  0  0  0  0  0  0
  1 11  4  0
  1 21  4  0
  2  4  1  0
  2  8  1  0
  2 11  1  0
  3 10  4  0
  3 14  4  0
  4  5  1  0
  4 18  2  0
  6 12  1  0
  6 17  4  0
  6 23  4  0
  7  9  1  0
  7 13  4  0
  7 19  4  0
  9 20  1  0
 10 19  4  0
 11 25  4  0
 13 14  4  0
 15 16  4  0
 15 17  4  0
 15 21  4  0
 16 24  1  0
 16 25  4  0
 20 24  1  0
 20 26  2  0
 21 23  4  0
 22 23  1  0
M  END
$$$$

 Created by Python create_sdf_string function

 26 28  0  0  0  0  0  0  0  0999 V2000
   12.4616    8.6700   19.4180 N   0  0  0  0  0  0  0  0  0  0  0  0
   11.8329   10.8148   18.6769 N   0  0  0  0  0  0  0  0  0  0  0  0
    6.1021    2.5564   21.0678 C   0  0  0  0  0  0  0  0  0  0  0  0
   10.9097   11.8051   18.4804 C   0  0  0  0  0  0  0  0  0  0  0  0
   11.2280   12.9135   17.5669 C   0  0  0  0  0  0  0  0  0  0  0  0
   12.3782    5.4231   20.7777 C   0  0  0  0  0  0  0  0  0  0  0  0
    7.7365    4.6508   21.6987 C   0  0  0  0  0  0  0  0  0  0  0  0
   13.0186   11.0102   18.0020 C   0  0  0  0  0  0  0  0  0  0  0  0
    8.6628    5.7088   21.8871 N   0  0  0  0  0  0  0  0  0  0  0  0
    5.6516    3.5258   21.9140 C   0  0  0  0  0  0  0  0  0  0  0  0
   11.5863    9.6815   19.4539 C   0  0  0  0  0  0  0  0  0  0  0  0
   12.9648    4.1543   20.9205 C   0  0  0  0  0  0  0  0  0  0  0  0
    8.2089    3.6265   20.8929 C   0  0  0  0  0  0  0  0  0  0  0  0
    7.3827    2.5724   20.5432 C   0  0  0  0  0  0  0  0  0  0  0  0
   11.1529    7.2750   20.8025 C   0  0  0  0  0  0  0  0  0  0  0  0
   10.2573    8.3215   20.9827 C   0  0  0  0  0  0  0  0  0  0  0  0
   11.1606    5.9378   21.2366 N   0  0  0  0  0  0  0  0  0  0  0  0
    9.8932   11.6736   19.0677 O   0  0  0  0  0  0  0  0  0  0  0  0
    6.4470    4.5850   22.2321 C   0  0  0  0  0  0  0  0  0  0  0  0
    8.4619    6.9895   22.2968 C   0  0  0  0  0  0  0  0  0  0  0  0
   12.2747    7.5102   20.0420 C   0  0  0  0  0  0  0  0  0  0  0  0
   14.2544    6.2142   19.4191 C   0  0  0  0  0  0  0  0  0  0  0  0
   13.0695    6.3705   20.0375 N   0  0  0  0  0  0  0  0  0  0  0  0
    9.1913    8.0876   21.8361 N   0  0  0  0  0  0  0  0  0  0  0  0
   10.4739    9.4813   20.2889 C   0  0  0  0  0  0  0  0  0  0  0  0
    7.5551    7.1270   23.1200 O   0  0  0  0  0  0  0  0  0  0  0  0
  1 11  4  0
  1 21  4  0
  2  4  1  0
  2  8  1  0
  2 11  1  0
  3 10  4  0
  3 14  4  0
  4  5  1  0
  4 18  2  0
  6 12  1  0
  6 17  4  0
  6 23  4  0
  7  9  1  0
  7 13  4  0
  7 19  4  0
  9 20  1  0
 10 19  4  0
 11 25  4  0
 13 14  4  0
 15 16  4  0
 15 17  4  0
 15 21  4  0
 16 24  1  0
 16 25  4  0
 20 24  1  0
 20 26  2  0
 21 23  4  0
 22 23  1  0
M  END
$$$$

 Created by Python create_sdf_string function

 26 28  0  0  0  0  0  0  0  0999 V2000
   12.4616    8.6700   19.4180 N   0  0  0  0  0  0  0  0  0  0  0  0
   11.8329   10.8148   18.6769 N   0  0  0  0  0  0  0  0  0  0  0  0
    6.1021    2.5564   21.0678 C   0  0  0  0  0  0  0  0  0  0  0  0
   10.9097   11.8051   18.4804 C   0  0  0  0  0  0  0  0  0  0  0  0
   11.2280   12.9135   17.5669 C   0  0  0  0  0  0  0  0  0  0  0  0
   12.3782    5.4231   20.7777 C   0  0  0  0  0  0  0  0  0  0  0  0
    7.7365    4.6508   21.6987 C   0  0  0  0  0  0  0  0  0  0  0  0
   13.0186   11.0102   18.0020 C   0  0  0  0  0  0  0  0  0  0  0  0
    8.6628    5.7088   21.8871 N   0  0  0  0  0  0  0  0  0  0  0  0
    5.6516    3.5258   21.9140 C   0  0  0  0  0  0  0  0  0  0  0  0
   11.5863    9.6815   19.4539 C   0  0  0  0  0  0  0  0  0  0  0  0
   12.9648    4.1543   20.9205 C   0  0  0  0  0  0  0  0  0  0  0  0
    8.2089    3.6265   20.8929 C   0  0  0  0  0  0  0  0  0  0  0  0
    7.3827    2.5724   20.5432 C   0  0  0  0  0  0  0  0  0  0  0  0
   11.1529    7.2750   20.8025 C   0  0  0  0  0  0  0  0  0  0  0  0
   10.2573    8.3215   20.9827 C   0  0  0  0  0  0  0  0  0  0  0  0
   11.1606    5.9378   21.2366 N   0  0  0  0  0  0  0  0  0  0  0  0
    9.8932   11.6736   19.0677 O   0  0  0  0  0  0  0  0  0  0  0  0
    6.4470    4.5850   22.2321 C   0  0  0  0  0  0  0  0  0  0  0  0
    8.4619    6.9895   22.2968 C   0  0  0  0  0  0  0  0  0  0  0  0
   12.2747    7.5102   20.0420 C   0  0  0  0  0  0  0  0  0  0  0  0
   14.2544    6.2142   19.4191 C   0  0  0  0  0  0  0  0  0  0  0  0
   13.0695    6.3705   20.0375 N   0  0  0  0  0  0  0  0  0  0  0  0
    9.1913    8.0876   21.8361 N   0  0  0  0  0  0  0  0  0  0  0  0
   10.4739    9.4813   20.2889 C   0  0  0  0  0  0  0  0  0  0  0  0
    7.5551    7.1270   23.1200 O   0  0  0  0  0  0  0  0  0  0  0  0
  1 11  4  0
  1 21  4  0
  2  4  1  0
  2  8  1  0
  2 11  1  0
  3 10  4  0
  3 14  4  0
  4  5  1  0
  4 18  2  0
  6 12  1  0
  6 17  4  0
  6 23  4  0
  7  9  1  0
  7 13  4  0
  7 19  4  0
  9 20  1  0
 10 19  4  0
 11 25  4  0
 13 14  4  0
 15 16  4  0
 15 17  4  0
 15 21  4  0
 16 24  1  0
 16 25  4  0
 20 24  1  0
 20 26  2  0
 21 23  4  0
 22 23  1  0
M  END
$$$$

 Created by Python create_sdf_string function

 26 28  0  0  0  0  0  0  0  0999 V2000
   12.4616    8.6700   19.4180 N   0  0  0  0  0  0  0  0  0  0  0  0
   11.8329   10.8148   18.6769 N   0  0  0  0  0  0  0  0  0  0  0  0
    6.1021    2.5564   21.0678 C   0  0  0  0  0  0  0  0  0  0  0  0
   10.9097   11.8051   18.4804 C   0  0  0  0  0  0  0  0  0  0  0  0
   11.2280   12.9135   17.5669 C   0  0  0  0  0  0  0  0  0  0  0  0
   12.3782    5.4231   20.7777 C   0  0  0  0  0  0  0  0  0  0  0  0
    7.7365    4.6508   21.6987 C   0  0  0  0  0  0  0  0  0  0  0  0
   13.0186   11.0102   18.0020 C   0  0  0  0  0  0  0  0  0  0  0  0
    8.6628    5.7088   21.8871 N   0  0  0  0  0  0  0  0  0  0  0  0
    5.6516    3.5258   21.9140 C   0  0  0  0  0  0  0  0  0  0  0  0
   11.5863    9.6815   19.4539 C   0  0  0  0  0  0  0  0  0  0  0  0
   12.9648    4.1543   20.9205 C   0  0  0  0  0  0  0  0  0  0  0  0
    8.2089    3.6265   20.8929 C   0  0  0  0  0  0  0  0  0  0  0  0
    7.3827    2.5724   20.5432 C   0  0  0  0  0  0  0  0  0  0  0  0
   11.1529    7.2750   20.8025 C   0  0  0  0  0  0  0  0  0  0  0  0
   10.2573    8.3215   20.9827 C   0  0  0  0  0  0  0  0  0  0  0  0
   11.1606    5.9378   21.2366 N   0  0  0  0  0  0  0  0  0  0  0  0
    9.8932   11.6736   19.0677 O   0  0  0  0  0  0  0  0  0  0  0  0
    6.4470    4.5850   22.2321 C   0  0  0  0  0  0  0  0  0  0  0  0
    8.4619    6.9895   22.2968 C   0  0  0  0  0  0  0  0  0  0  0  0
   12.2747    7.5102   20.0420 C   0  0  0  0  0  0  0  0  0  0  0  0
   14.2544    6.2142   19.4191 C   0  0  0  0  0  0  0  0  0  0  0  0
   13.0695    6.3705   20.0375 N   0  0  0  0  0  0  0  0  0  0  0  0
    9.1913    8.0876   21.8361 N   0  0  0  0  0  0  0  0  0  0  0  0
   10.4739    9.4813   20.2889 C   0  0  0  0  0  0  0  0  0  0  0  0
    7.5551    7.1270   23.1200 O   0  0  0  0  0  0  0  0  0  0  0  0
  1 11  4  0
  1 21  4  0
  2  4  1  0
  2  8  1  0
  2 11  1  0
  3 10  4  0
  3 14  4  0
  4  5  1  0
  4 18  2  0
  6 12  1  0
  6 17  4  0
  6 23  4  0
  7  9  1  0
  7 13  4  0
  7 19  4  0
  9 20  1  0
 10 19  4  0
 11 25  4  0
 13 14  4  0
 15 16  4  0
 15 17  4  0
 15 21  4  0
 16 24  1  0
 16 25  4  0
 20 24  1  0
 20 26  2  0
 21 23  4  0
 22 23  1  0
M  END
$$$$

 Created by Python create_sdf_string function

 26 28  0  0  0  0  0  0  0  0999 V2000
   12.4616    8.6700   19.4180 N   0  0  0  0  0  0  0  0  0  0  0  0
   11.8329   10.8148   18.6769 N   0  0  0  0  0  0  0  0  0  0  0  0
    6.1021    2.5564   21.0678 C   0  0  0  0  0  0  0  0  0  0  0  0
   10.9097   11.8051   18.4804 C   0  0  0  0  0  0  0  0  0  0  0  0
   11.2280   12.9135   17.5669 C   0  0  0  0  0  0  0  0  0  0  0  0
   12.3782    5.4231   20.7777 C   0  0  0  0  0  0  0  0  0  0  0  0
    7.7365    4.6508   21.6987 C   0  0  0  0  0  0  0  0  0  0  0  0
   13.0186   11.0102   18.0020 C   0  0  0  0  0  0  0  0  0  0  0  0
    8.6628    5.7088   21.8871 N   0  0  0  0  0  0  0  0  0  0  0  0
    5.6516    3.5258   21.9140 C   0  0  0  0  0  0  0  0  0  0  0  0
   11.5863    9.6815   19.4539 C   0  0  0  0  0  0  0  0  0  0  0  0
   12.9648    4.1543   20.9205 C   0  0  0  0  0  0  0  0  0  0  0  0
    8.2089    3.6265   20.8929 C   0  0  0  0  0  0  0  0  0  0  0  0
    7.3827    2.5724   20.5432 C   0  0  0  0  0  0  0  0  0  0  0  0
   11.1529    7.2750   20.8025 C   0  0  0  0  0  0  0  0  0  0  0  0
   10.2573    8.3215   20.9827 C   0  0  0  0  0  0  0  0  0  0  0  0
   11.1606    5.9378   21.2366 N   0  0  0  0  0  0  0  0  0  0  0  0
    9.8932   11.6736   19.0677 O   0  0  0  0  0  0  0  0  0  0  0  0
    6.4470    4.5850   22.2321 C   0  0  0  0  0  0  0  0  0  0  0  0
    8.4619    6.9895   22.2968 C   0  0  0  0  0  0  0  0  0  0  0  0
   12.2747    7.5102   20.0420 C   0  0  0  0  0  0  0  0  0  0  0  0
   14.2544    6.2142   19.4191 C   0  0  0  0  0  0  0  0  0  0  0  0
   13.0695    6.3705   20.0375 N   0  0  0  0  0  0  0  0  0  0  0  0
    9.1913    8.0876   21.8361 N   0  0  0  0  0  0  0  0  0  0  0  0
   10.4739    9.4813   20.2889 C   0  0  0  0  0  0  0  0  0  0  0  0
    7.5551    7.1270   23.1200 O   0  0  0  0  0  0  0  0  0  0  0  0
  1 11  4  0
  1 21  4  0
  2  4  1  0
  2  8  1  0
  2 11  1  0
  3 10  4  0
  3 14  4  0
  4  5  1  0
  4 18  2  0
  6 12  1  0
  6 17  4  0
  6 23  4  0
  7  9  1  0
  7 13  4  0
  7 19  4  0
  9 20  1  0
 10 19  4  0
 11 25  4  0
 13 14  4  0
 15 16  4  0
 15 17  4  0
 15 21  4  0
 16 24  1  0
 16 25  4  0
 20 24  1  0
 20 26  2  0
 21 23  4  0
 22 23  1  0
M  END
$$$$

 Created by Python create_sdf_string function

 26 28  0  0  0  0  0  0  0  0999 V2000
   12.4616    8.6700   19.4180 N   0  0  0  0  0  0  0  0  0  0  0  0
   11.8329   10.8148   18.6769 N   0  0  0  0  0  0  0  0  0  0  0  0
    6.1021    2.5564   21.0678 C   0  0  0  0  0  0  0  0  0  0  0  0
   10.9097   11.8051   18.4804 C   0  0  0  0  0  0  0  0  0  0  0  0
   11.2280   12.9135   17.5669 C   0  0  0  0  0  0  0  0  0  0  0  0
   12.3782    5.4231   20.7777 C   0  0  0  0  0  0  0  0  0  0  0  0
    7.7365    4.6508   21.6987 C   0  0  0  0  0  0  0  0  0  0  0  0
   13.0186   11.0102   18.0020 C   0  0  0  0  0  0  0  0  0  0  0  0
    8.6628    5.7088   21.8871 N   0  0  0  0  0  0  0  0  0  0  0  0
    5.6516    3.5258   21.9140 C   0  0  0  0  0  0  0  0  0  0  0  0
   11.5863    9.6815   19.4539 C   0  0  0  0  0  0  0  0  0  0  0  0
   12.9648    4.1543   20.9205 C   0  0  0  0  0  0  0  0  0  0  0  0
    8.2089    3.6265   20.8929 C   0  0  0  0  0  0  0  0  0  0  0  0
    7.3827    2.5724   20.5432 C   0  0  0  0  0  0  0  0  0  0  0  0
   11.1529    7.2750   20.8025 C   0  0  0  0  0  0  0  0  0  0  0  0
   10.2573    8.3215   20.9827 C   0  0  0  0  0  0  0  0  0  0  0  0
   11.1606    5.9378   21.2366 N   0  0  0  0  0  0  0  0  0  0  0  0
    9.8932   11.6736   19.0677 O   0  0  0  0  0  0  0  0  0  0  0  0
    6.4470    4.5850   22.2321 C   0  0  0  0  0  0  0  0  0  0  0  0
    8.4619    6.9895   22.2968 C   0  0  0  0  0  0  0  0  0  0  0  0
   12.2747    7.5102   20.0420 C   0  0  0  0  0  0  0  0  0  0  0  0
   14.2544    6.2142   19.4191 C   0  0  0  0  0  0  0  0  0  0  0  0
   13.0695    6.3705   20.0375 N   0  0  0  0  0  0  0  0  0  0  0  0
    9.1913    8.0876   21.8361 N   0  0  0  0  0  0  0  0  0  0  0  0
   10.4739    9.4813   20.2889 C   0  0  0  0  0  0  0  0  0  0  0  0
    7.5551    7.1270   23.1200 O   0  0  0  0  0  0  0  0  0  0  0  0
  1 11  4  0
  1 21  4  0
  2  4  1  0
  2  8  1  0
  2 11  1  0
  3 10  4  0
  3 14  4  0
  4  5  1  0
  4 18  2  0
  6 12  1  0
  6 17  4  0
  6 23  4  0
  7  9  1  0
  7 13  4  0
  7 19  4  0
  9 20  1  0
 10 19  4  0
 11 25  4  0
 13 14  4  0
 15 16  4  0
 15 17  4  0
 15 21  4  0
 16 24  1  0
 16 25  4  0
 20 24  1  0
 20 26  2  0
 21 23  4  0
 22 23  1  0
M  END
$$$$

 Created by Python create_sdf_string function

 26 28  0  0  0  0  0  0  0  0999 V2000
   12.4616    8.6700   19.4180 N   0  0  0  0  0  0  0  0  0  0  0  0
   11.8329   10.8148   18.6769 N   0  0  0  0  0  0  0  0  0  0  0  0
    6.1021    2.5564   21.0678 C   0  0  0  0  0  0  0  0  0  0  0  0
   10.9097   11.8051   18.4804 C   0  0  0  0  0  0  0  0  0  0  0  0
   11.2280   12.9135   17.5669 C   0  0  0  0  0  0  0  0  0  0  0  0
   12.3782    5.4231   20.7777 C   0  0  0  0  0  0  0  0  0  0  0  0
    7.7365    4.6508   21.6987 C   0  0  0  0  0  0  0  0  0  0  0  0
   13.0186   11.0102   18.0020 C   0  0  0  0  0  0  0  0  0  0  0  0
    8.6628    5.7088   21.8871 N   0  0  0  0  0  0  0  0  0  0  0  0
    5.6516    3.5258   21.9140 C   0  0  0  0  0  0  0  0  0  0  0  0
   11.5863    9.6815   19.4539 C   0  0  0  0  0  0  0  0  0  0  0  0
   12.9648    4.1543   20.9205 C   0  0  0  0  0  0  0  0  0  0  0  0
    8.2089    3.6265   20.8929 C   0  0  0  0  0  0  0  0  0  0  0  0
    7.3827    2.5724   20.5432 C   0  0  0  0  0  0  0  0  0  0  0  0
   11.1529    7.2750   20.8025 C   0  0  0  0  0  0  0  0  0  0  0  0
   10.2573    8.3215   20.9827 C   0  0  0  0  0  0  0  0  0  0  0  0
   11.1606    5.9378   21.2366 N   0  0  0  0  0  0  0  0  0  0  0  0
    9.8932   11.6736   19.0677 O   0  0  0  0  0  0  0  0  0  0  0  0
    6.4470    4.5850   22.2321 C   0  0  0  0  0  0  0  0  0  0  0  0
    8.4619    6.9895   22.2968 C   0  0  0  0  0  0  0  0  0  0  0  0
   12.2747    7.5102   20.0420 C   0  0  0  0  0  0  0  0  0  0  0  0
   14.2544    6.2142   19.4191 C   0  0  0  0  0  0  0  0  0  0  0  0
   13.0695    6.3705   20.0375 N   0  0  0  0  0  0  0  0  0  0  0  0
    9.1913    8.0876   21.8361 N   0  0  0  0  0  0  0  0  0  0  0  0
   10.4739    9.4813   20.2889 C   0  0  0  0  0  0  0  0  0  0  0  0
    7.5551    7.1270   23.1200 O   0  0  0  0  0  0  0  0  0  0  0  0
  1 11  4  0
  1 21  4  0
  2  4  1  0
  2  8  1  0
  2 11  1  0
  3 10  4  0
  3 14  4  0
  4  5  1  0
  4 18  2  0
  6 12  1  0
  6 17  4  0
  6 23  4  0
  7  9  1  0
  7 13  4  0
  7 19  4  0
  9 20  1  0
 10 19  4  0
 11 25  4  0
 13 14  4  0
 15 16  4  0
 15 17  4  0
 15 21  4  0
 16 24  1  0
 16 25  4  0
 20 24  1  0
 20 26  2  0
 21 23  4  0
 22 23  1  0
M  END
$$$$

 Created by Python create_sdf_string function

 26 28  0  0  0  0  0  0  0  0999 V2000
   12.4616    8.6700   19.4180 N   0  0  0  0  0  0  0  0  0  0  0  0
   11.8329   10.8148   18.6769 N   0  0  0  0  0  0  0  0  0  0  0  0
    6.1021    2.5564   21.0678 C   0  0  0  0  0  0  0  0  0  0  0  0
   10.9097   11.8051   18.4804 C   0  0  0  0  0  0  0  0  0  0  0  0
   11.2280   12.9135   17.5669 C   0  0  0  0  0  0  0  0  0  0  0  0
   12.3782    5.4231   20.7777 C   0  0  0  0  0  0  0  0  0  0  0  0
    7.7365    4.6508   21.6987 C   0  0  0  0  0  0  0  0  0  0  0  0
   13.0186   11.0102   18.0020 C   0  0  0  0  0  0  0  0  0  0  0  0
    8.6628    5.7088   21.8871 N   0  0  0  0  0  0  0  0  0  0  0  0
    5.6516    3.5258   21.9140 C   0  0  0  0  0  0  0  0  0  0  0  0
   11.5863    9.6815   19.4539 C   0  0  0  0  0  0  0  0  0  0  0  0
   12.9648    4.1543   20.9205 C   0  0  0  0  0  0  0  0  0  0  0  0
    8.2089    3.6265   20.8929 C   0  0  0  0  0  0  0  0  0  0  0  0
    7.3827    2.5724   20.5432 C   0  0  0  0  0  0  0  0  0  0  0  0
   11.1529    7.2750   20.8025 C   0  0  0  0  0  0  0  0  0  0  0  0
   10.2573    8.3215   20.9827 C   0  0  0  0  0  0  0  0  0  0  0  0
   11.1606    5.9378   21.2366 N   0  0  0  0  0  0  0  0  0  0  0  0
    9.8932   11.6736   19.0677 O   0  0  0  0  0  0  0  0  0  0  0  0
    6.4470    4.5850   22.2321 C   0  0  0  0  0  0  0  0  0  0  0  0
    8.4619    6.9895   22.2968 C   0  0  0  0  0  0  0  0  0  0  0  0
   12.2747    7.5102   20.0420 C   0  0  0  0  0  0  0  0  0  0  0  0
   14.2544    6.2142   19.4191 C   0  0  0  0  0  0  0  0  0  0  0  0
   13.0695    6.3705   20.0375 N   0  0  0  0  0  0  0  0  0  0  0  0
    9.1913    8.0876   21.8361 N   0  0  0  0  0  0  0  0  0  0  0  0
   10.4739    9.4813   20.2889 C   0  0  0  0  0  0  0  0  0  0  0  0
    7.5551    7.1270   23.1200 O   0  0  0  0  0  0  0  0  0  0  0  0
  1 11  4  0
  1 21  4  0
  2  4  1  0
  2  8  1  0
  2 11  1  0
  3 10  4  0
  3 14  4  0
  4  5  1  0
  4 18  2  0
  6 12  1  0
  6 17  4  0
  6 23  4  0
  7  9  1  0
  7 13  4  0
  7 19  4  0
  9 20  1  0
 10 19  4  0
 11 25  4  0
 13 14  4  0
 15 16  4  0
 15 17  4  0
 15 21  4  0
 16 24  1  0
 16 25  4  0
 20 24  1  0
 20 26  2  0
 21 23  4  0
 22 23  1  0
M  END
$$$$

 Created by Python create_sdf_string function

 26 28  0  0  0  0  0  0  0  0999 V2000
   12.4616    8.6700   19.4180 N   0  0  0  0  0  0  0  0  0  0  0  0
   11.8329   10.8148   18.6769 N   0  0  0  0  0  0  0  0  0  0  0  0
    6.1021    2.5564   21.0678 C   0  0  0  0  0  0  0  0  0  0  0  0
   10.9097   11.8051   18.4804 C   0  0  0  0  0  0  0  0  0  0  0  0
   11.2280   12.9135   17.5669 C   0  0  0  0  0  0  0  0  0  0  0  0
   12.3782    5.4231   20.7777 C   0  0  0  0  0  0  0  0  0  0  0  0
    7.7365    4.6508   21.6987 C   0  0  0  0  0  0  0  0  0  0  0  0
   13.0186   11.0102   18.0020 C   0  0  0  0  0  0  0  0  0  0  0  0
    8.6628    5.7088   21.8871 N   0  0  0  0  0  0  0  0  0  0  0  0
    5.6516    3.5258   21.9140 C   0  0  0  0  0  0  0  0  0  0  0  0
   11.5863    9.6815   19.4539 C   0  0  0  0  0  0  0  0  0  0  0  0
   12.9648    4.1543   20.9205 C   0  0  0  0  0  0  0  0  0  0  0  0
    8.2089    3.6265   20.8929 C   0  0  0  0  0  0  0  0  0  0  0  0
    7.3827    2.5724   20.5432 C   0  0  0  0  0  0  0  0  0  0  0  0
   11.1529    7.2750   20.8025 C   0  0  0  0  0  0  0  0  0  0  0  0
   10.2573    8.3215   20.9827 C   0  0  0  0  0  0  0  0  0  0  0  0
   11.1606    5.9378   21.2366 N   0  0  0  0  0  0  0  0  0  0  0  0
    9.8932   11.6736   19.0677 O   0  0  0  0  0  0  0  0  0  0  0  0
    6.4470    4.5850   22.2321 C   0  0  0  0  0  0  0  0  0  0  0  0
    8.4619    6.9895   22.2968 C   0  0  0  0  0  0  0  0  0  0  0  0
   12.2747    7.5102   20.0420 C   0  0  0  0  0  0  0  0  0  0  0  0
   14.2544    6.2142   19.4191 C   0  0  0  0  0  0  0  0  0  0  0  0
   13.0695    6.3705   20.0375 N   0  0  0  0  0  0  0  0  0  0  0  0
    9.1913    8.0876   21.8361 N   0  0  0  0  0  0  0  0  0  0  0  0
   10.4739    9.4813   20.2889 C   0  0  0  0  0  0  0  0  0  0  0  0
    7.5551    7.1270   23.1200 O   0  0  0  0  0  0  0  0  0  0  0  0
  1 11  4  0
  1 21  4  0
  2  4  1  0
  2  8  1  0
  2 11  1  0
  3 10  4  0
  3 14  4  0
  4  5  1  0
  4 18  2  0
  6 12  1  0
  6 17  4  0
  6 23  4  0
  7  9  1  0
  7 13  4  0
  7 19  4  0
  9 20  1  0
 10 19  4  0
 11 25  4  0
 13 14  4  0
 15 16  4  0
 15 17  4  0
 15 21  4  0
 16 24  1  0
 16 25  4  0
 20 24  1  0
 20 26  2  0
 21 23  4  0
 22 23  1  0
M  END
$$$$

 Created by Python create_sdf_string function

 26 28  0  0  0  0  0  0  0  0999 V2000
   12.4616    8.6700   19.4180 N   0  0  0  0  0  0  0  0  0  0  0  0
   11.8329   10.8148   18.6769 N   0  0  0  0  0  0  0  0  0  0  0  0
    6.1021    2.5564   21.0678 C   0  0  0  0  0  0  0  0  0  0  0  0
   10.9097   11.8051   18.4804 C   0  0  0  0  0  0  0  0  0  0  0  0
   11.2280   12.9135   17.5669 C   0  0  0  0  0  0  0  0  0  0  0  0
   12.3782    5.4231   20.7777 C   0  0  0  0  0  0  0  0  0  0  0  0
    7.7365    4.6508   21.6987 C   0  0  0  0  0  0  0  0  0  0  0  0
   13.0186   11.0102   18.0020 C   0  0  0  0  0  0  0  0  0  0  0  0
    8.6628    5.7088   21.8871 N   0  0  0  0  0  0  0  0  0  0  0  0
    5.6516    3.5258   21.9140 C   0  0  0  0  0  0  0  0  0  0  0  0
   11.5863    9.6815   19.4539 C   0  0  0  0  0  0  0  0  0  0  0  0
   12.9648    4.1543   20.9205 C   0  0  0  0  0  0  0  0  0  0  0  0
    8.2089    3.6265   20.8929 C   0  0  0  0  0  0  0  0  0  0  0  0
    7.3827    2.5724   20.5432 C   0  0  0  0  0  0  0  0  0  0  0  0
   11.1529    7.2750   20.8025 C   0  0  0  0  0  0  0  0  0  0  0  0
   10.2573    8.3215   20.9827 C   0  0  0  0  0  0  0  0  0  0  0  0
   11.1606    5.9378   21.2366 N   0  0  0  0  0  0  0  0  0  0  0  0
    9.8932   11.6736   19.0677 O   0  0  0  0  0  0  0  0  0  0  0  0
    6.4470    4.5850   22.2321 C   0  0  0  0  0  0  0  0  0  0  0  0
    8.4619    6.9895   22.2968 C   0  0  0  0  0  0  0  0  0  0  0  0
   12.2747    7.5102   20.0420 C   0  0  0  0  0  0  0  0  0  0  0  0
   14.2544    6.2142   19.4191 C   0  0  0  0  0  0  0  0  0  0  0  0
   13.0695    6.3705   20.0375 N   0  0  0  0  0  0  0  0  0  0  0  0
    9.1913    8.0876   21.8361 N   0  0  0  0  0  0  0  0  0  0  0  0
   10.4739    9.4813   20.2889 C   0  0  0  0  0  0  0  0  0  0  0  0
    7.5551    7.1270   23.1200 O   0  0  0  0  0  0  0  0  0  0  0  0
  1 11  4  0
  1 21  4  0
  2  4  1  0
  2  8  1  0
  2 11  1  0
  3 10  4  0
  3 14  4  0
  4  5  1  0
  4 18  2  0
  6 12  1  0
  6 17  4  0
  6 23  4  0
  7  9  1  0
  7 13  4  0
  7 19  4  0
  9 20  1  0
 10 19  4  0
 11 25  4  0
 13 14  4  0
 15 16  4  0
 15 17  4  0
 15 21  4  0
 16 24  1  0
 16 25  4  0
 20 24  1  0
 20 26  2  0
 21 23  4  0
 22 23  1  0
M  END
$$$$

 Created by Python create_sdf_string function

 26 28  0  0  0  0  0  0  0  0999 V2000
   12.4616    8.6700   19.4180 N   0  0  0  0  0  0  0  0  0  0  0  0
   11.8329   10.8148   18.6769 N   0  0  0  0  0  0  0  0  0  0  0  0
    6.1021    2.5564   21.0678 C   0  0  0  0  0  0  0  0  0  0  0  0
   10.9097   11.8051   18.4804 C   0  0  0  0  0  0  0  0  0  0  0  0
   11.2280   12.9135   17.5669 C   0  0  0  0  0  0  0  0  0  0  0  0
   12.3782    5.4231   20.7777 C   0  0  0  0  0  0  0  0  0  0  0  0
    7.7365    4.6508   21.6987 C   0  0  0  0  0  0  0  0  0  0  0  0
   13.0186   11.0102   18.0020 C   0  0  0  0  0  0  0  0  0  0  0  0
    8.6628    5.7088   21.8871 N   0  0  0  0  0  0  0  0  0  0  0  0
    5.6516    3.5258   21.9140 C   0  0  0  0  0  0  0  0  0  0  0  0
   11.5863    9.6815   19.4539 C   0  0  0  0  0  0  0  0  0  0  0  0
   12.9648    4.1543   20.9205 C   0  0  0  0  0  0  0  0  0  0  0  0
    8.2089    3.6265   20.8929 C   0  0  0  0  0  0  0  0  0  0  0  0
    7.3827    2.5724   20.5432 C   0  0  0  0  0  0  0  0  0  0  0  0
   11.1529    7.2750   20.8025 C   0  0  0  0  0  0  0  0  0  0  0  0
   10.2573    8.3215   20.9827 C   0  0  0  0  0  0  0  0  0  0  0  0
   11.1606    5.9378   21.2366 N   0  0  0  0  0  0  0  0  0  0  0  0
    9.8932   11.6736   19.0677 O   0  0  0  0  0  0  0  0  0  0  0  0
    6.4470    4.5850   22.2321 C   0  0  0  0  0  0  0  0  0  0  0  0
    8.4619    6.9895   22.2968 C   0  0  0  0  0  0  0  0  0  0  0  0
   12.2747    7.5102   20.0420 C   0  0  0  0  0  0  0  0  0  0  0  0
   14.2544    6.2142   19.4191 C   0  0  0  0  0  0  0  0  0  0  0  0
   13.0695    6.3705   20.0375 N   0  0  0  0  0  0  0  0  0  0  0  0
    9.1913    8.0876   21.8361 N   0  0  0  0  0  0  0  0  0  0  0  0
   10.4739    9.4813   20.2889 C   0  0  0  0  0  0  0  0  0  0  0  0
    7.5551    7.1270   23.1200 O   0  0  0  0  0  0  0  0  0  0  0  0
  1 11  4  0
  1 21  4  0
  2  4  1  0
  2  8  1  0
  2 11  1  0
  3 10  4  0
  3 14  4  0
  4  5  1  0
  4 18  2  0
  6 12  1  0
  6 17  4  0
  6 23  4  0
  7  9  1  0
  7 13  4  0
  7 19  4  0
  9 20  1  0
 10 19  4  0
 11 25  4  0
 13 14  4  0
 15 16  4  0
 15 17  4  0
 15 21  4  0
 16 24  1  0
 16 25  4  0
 20 24  1  0
 20 26  2  0
 21 23  4  0
 22 23  1  0
M  END
$$$$

 Created by Python create_sdf_string function

 26 28  0  0  0  0  0  0  0  0999 V2000
   12.4616    8.6700   19.4180 N   0  0  0  0  0  0  0  0  0  0  0  0
   11.8329   10.8148   18.6769 N   0  0  0  0  0  0  0  0  0  0  0  0
    6.1021    2.5564   21.0678 C   0  0  0  0  0  0  0  0  0  0  0  0
   10.9097   11.8051   18.4804 C   0  0  0  0  0  0  0  0  0  0  0  0
   11.2280   12.9135   17.5669 C   0  0  0  0  0  0  0  0  0  0  0  0
   12.3782    5.4231   20.7777 C   0  0  0  0  0  0  0  0  0  0  0  0
    7.7365    4.6508   21.6987 C   0  0  0  0  0  0  0  0  0  0  0  0
   13.0186   11.0102   18.0020 C   0  0  0  0  0  0  0  0  0  0  0  0
    8.6628    5.7088   21.8871 N   0  0  0  0  0  0  0  0  0  0  0  0
    5.6516    3.5258   21.9140 C   0  0  0  0  0  0  0  0  0  0  0  0
   11.5863    9.6815   19.4539 C   0  0  0  0  0  0  0  0  0  0  0  0
   12.9648    4.1543   20.9205 C   0  0  0  0  0  0  0  0  0  0  0  0
    8.2089    3.6265   20.8929 C   0  0  0  0  0  0  0  0  0  0  0  0
    7.3827    2.5724   20.5432 C   0  0  0  0  0  0  0  0  0  0  0  0
   11.1529    7.2750   20.8025 C   0  0  0  0  0  0  0  0  0  0  0  0
   10.2573    8.3215   20.9827 C   0  0  0  0  0  0  0  0  0  0  0  0
   11.1606    5.9378   21.2366 N   0  0  0  0  0  0  0  0  0  0  0  0
    9.8932   11.6736   19.0677 O   0  0  0  0  0  0  0  0  0  0  0  0
    6.4470    4.5850   22.2321 C   0  0  0  0  0  0  0  0  0  0  0  0
    8.4619    6.9895   22.2968 C   0  0  0  0  0  0  0  0  0  0  0  0
   12.2747    7.5102   20.0420 C   0  0  0  0  0  0  0  0  0  0  0  0
   14.2544    6.2142   19.4191 C   0  0  0  0  0  0  0  0  0  0  0  0
   13.0695    6.3705   20.0375 N   0  0  0  0  0  0  0  0  0  0  0  0
    9.1913    8.0876   21.8361 N   0  0  0  0  0  0  0  0  0  0  0  0
   10.4739    9.4813   20.2889 C   0  0  0  0  0  0  0  0  0  0  0  0
    7.5551    7.1270   23.1200 O   0  0  0  0  0  0  0  0  0  0  0  0
  1 11  4  0
  1 21  4  0
  2  4  1  0
  2  8  1  0
  2 11  1  0
  3 10  4  0
  3 14  4  0
  4  5  1  0
  4 18  2  0
  6 12  1  0
  6 17  4  0
  6 23  4  0
  7  9  1  0
  7 13  4  0
  7 19  4  0
  9 20  1  0
 10 19  4  0
 11 25  4  0
 13 14  4  0
 15 16  4  0
 15 17  4  0
 15 21  4  0
 16 24  1  0
 16 25  4  0
 20 24  1  0
 20 26  2  0
 21 23  4  0
 22 23  1  0
M  END
$$$$

 Created by Python create_sdf_string function

 26 28  0  0  0  0  0  0  0  0999 V2000
   12.4616    8.6700   19.4180 N   0  0  0  0  0  0  0  0  0  0  0  0
   11.8329   10.8148   18.6769 N   0  0  0  0  0  0  0  0  0  0  0  0
    6.1021    2.5564   21.0678 C   0  0  0  0  0  0  0  0  0  0  0  0
   10.9097   11.8051   18.4804 C   0  0  0  0  0  0  0  0  0  0  0  0
   11.2280   12.9135   17.5669 C   0  0  0  0  0  0  0  0  0  0  0  0
   12.3782    5.4231   20.7777 C   0  0  0  0  0  0  0  0  0  0  0  0
    7.7365    4.6508   21.6987 C   0  0  0  0  0  0  0  0  0  0  0  0
   13.0186   11.0102   18.0020 C   0  0  0  0  0  0  0  0  0  0  0  0
    8.6628    5.7088   21.8871 N   0  0  0  0  0  0  0  0  0  0  0  0
    5.6516    3.5258   21.9140 C   0  0  0  0  0  0  0  0  0  0  0  0
   11.5863    9.6815   19.4539 C   0  0  0  0  0  0  0  0  0  0  0  0
   12.9648    4.1543   20.9205 C   0  0  0  0  0  0  0  0  0  0  0  0
    8.2089    3.6265   20.8929 C   0  0  0  0  0  0  0  0  0  0  0  0
    7.3827    2.5724   20.5432 C   0  0  0  0  0  0  0  0  0  0  0  0
   11.1529    7.2750   20.8025 C   0  0  0  0  0  0  0  0  0  0  0  0
   10.2573    8.3215   20.9827 C   0  0  0  0  0  0  0  0  0  0  0  0
   11.1606    5.9378   21.2366 N   0  0  0  0  0  0  0  0  0  0  0  0
    9.8932   11.6736   19.0677 O   0  0  0  0  0  0  0  0  0  0  0  0
    6.4470    4.5850   22.2321 C   0  0  0  0  0  0  0  0  0  0  0  0
    8.4619    6.9895   22.2968 C   0  0  0  0  0  0  0  0  0  0  0  0
   12.2747    7.5102   20.0420 C   0  0  0  0  0  0  0  0  0  0  0  0
   14.2544    6.2142   19.4191 C   0  0  0  0  0  0  0  0  0  0  0  0
   13.0695    6.3705   20.0375 N   0  0  0  0  0  0  0  0  0  0  0  0
    9.1913    8.0876   21.8361 N   0  0  0  0  0  0  0  0  0  0  0  0
   10.4739    9.4813   20.2889 C   0  0  0  0  0  0  0  0  0  0  0  0
    7.5551    7.1270   23.1200 O   0  0  0  0  0  0  0  0  0  0  0  0
  1 11  4  0
  1 21  4  0
  2  4  1  0
  2  8  1  0
  2 11  1  0
  3 10  4  0
  3 14  4  0
  4  5  1  0
  4 18  2  0
  6 12  1  0
  6 17  4  0
  6 23  4  0
  7  9  1  0
  7 13  4  0
  7 19  4  0
  9 20  1  0
 10 19  4  0
 11 25  4  0
 13 14  4  0
 15 16  4  0
 15 17  4  0
 15 21  4  0
 16 24  1  0
 16 25  4  0
 20 24  1  0
 20 26  2  0
 21 23  4  0
 22 23  1  0
M  END
$$$$

 Created by Python create_sdf_string function

 26 28  0  0  0  0  0  0  0  0999 V2000
   12.4616    8.6700   19.4180 N   0  0  0  0  0  0  0  0  0  0  0  0
   11.8329   10.8148   18.6769 N   0  0  0  0  0  0  0  0  0  0  0  0
    6.1021    2.5564   21.0678 C   0  0  0  0  0  0  0  0  0  0  0  0
   10.9097   11.8051   18.4804 C   0  0  0  0  0  0  0  0  0  0  0  0
   11.2280   12.9135   17.5669 C   0  0  0  0  0  0  0  0  0  0  0  0
   12.3782    5.4231   20.7777 C   0  0  0  0  0  0  0  0  0  0  0  0
    7.7365    4.6508   21.6987 C   0  0  0  0  0  0  0  0  0  0  0  0
   13.0186   11.0102   18.0020 C   0  0  0  0  0  0  0  0  0  0  0  0
    8.6628    5.7088   21.8871 N   0  0  0  0  0  0  0  0  0  0  0  0
    5.6516    3.5258   21.9140 C   0  0  0  0  0  0  0  0  0  0  0  0
   11.5863    9.6815   19.4539 C   0  0  0  0  0  0  0  0  0  0  0  0
   12.9648    4.1543   20.9205 C   0  0  0  0  0  0  0  0  0  0  0  0
    8.2089    3.6265   20.8929 C   0  0  0  0  0  0  0  0  0  0  0  0
    7.3827    2.5724   20.5432 C   0  0  0  0  0  0  0  0  0  0  0  0
   11.1529    7.2750   20.8025 C   0  0  0  0  0  0  0  0  0  0  0  0
   10.2573    8.3215   20.9827 C   0  0  0  0  0  0  0  0  0  0  0  0
   11.1606    5.9378   21.2366 N   0  0  0  0  0  0  0  0  0  0  0  0
    9.8932   11.6736   19.0677 O   0  0  0  0  0  0  0  0  0  0  0  0
    6.4470    4.5850   22.2321 C   0  0  0  0  0  0  0  0  0  0  0  0
    8.4619    6.9895   22.2968 C   0  0  0  0  0  0  0  0  0  0  0  0
   12.2747    7.5102   20.0420 C   0  0  0  0  0  0  0  0  0  0  0  0
   14.2544    6.2142   19.4191 C   0  0  0  0  0  0  0  0  0  0  0  0
   13.0695    6.3705   20.0375 N   0  0  0  0  0  0  0  0  0  0  0  0
    9.1913    8.0876   21.8361 N   0  0  0  0  0  0  0  0  0  0  0  0
   10.4739    9.4813   20.2889 C   0  0  0  0  0  0  0  0  0  0  0  0
    7.5551    7.1270   23.1200 O   0  0  0  0  0  0  0  0  0  0  0  0
  1 11  4  0
  1 21  4  0
  2  4  1  0
  2  8  1  0
  2 11  1  0
  3 10  4  0
  3 14  4  0
  4  5  1  0
  4 18  2  0
  6 12  1  0
  6 17  4  0
  6 23  4  0
  7  9  1  0
  7 13  4  0
  7 19  4  0
  9 20  1  0
 10 19  4  0
 11 25  4  0
 13 14  4  0
 15 16  4  0
 15 17  4  0
 15 21  4  0
 16 24  1  0
 16 25  4  0
 20 24  1  0
 20 26  2  0
 21 23  4  0
 22 23  1  0
M  END
$$$$

 Created by Python create_sdf_string function

 26 28  0  0  0  0  0  0  0  0999 V2000
   12.4616    8.6700   19.4180 N   0  0  0  0  0  0  0  0  0  0  0  0
   11.8329   10.8148   18.6769 N   0  0  0  0  0  0  0  0  0  0  0  0
    6.1021    2.5564   21.0678 C   0  0  0  0  0  0  0  0  0  0  0  0
   10.9097   11.8051   18.4804 C   0  0  0  0  0  0  0  0  0  0  0  0
   11.2280   12.9135   17.5669 C   0  0  0  0  0  0  0  0  0  0  0  0
   12.3782    5.4231   20.7777 C   0  0  0  0  0  0  0  0  0  0  0  0
    7.7365    4.6508   21.6987 C   0  0  0  0  0  0  0  0  0  0  0  0
   13.0186   11.0102   18.0020 C   0  0  0  0  0  0  0  0  0  0  0  0
    8.6628    5.7088   21.8871 N   0  0  0  0  0  0  0  0  0  0  0  0
    5.6516    3.5258   21.9140 C   0  0  0  0  0  0  0  0  0  0  0  0
   11.5863    9.6815   19.4539 C   0  0  0  0  0  0  0  0  0  0  0  0
   12.9648    4.1543   20.9205 C   0  0  0  0  0  0  0  0  0  0  0  0
    8.2089    3.6265   20.8929 C   0  0  0  0  0  0  0  0  0  0  0  0
    7.3827    2.5724   20.5432 C   0  0  0  0  0  0  0  0  0  0  0  0
   11.1529    7.2750   20.8025 C   0  0  0  0  0  0  0  0  0  0  0  0
   10.2573    8.3215   20.9827 C   0  0  0  0  0  0  0  0  0  0  0  0
   11.1606    5.9378   21.2366 N   0  0  0  0  0  0  0  0  0  0  0  0
    9.8932   11.6736   19.0677 O   0  0  0  0  0  0  0  0  0  0  0  0
    6.4470    4.5850   22.2321 C   0  0  0  0  0  0  0  0  0  0  0  0
    8.4619    6.9895   22.2968 C   0  0  0  0  0  0  0  0  0  0  0  0
   12.2747    7.5102   20.0420 C   0  0  0  0  0  0  0  0  0  0  0  0
   14.2544    6.2142   19.4191 C   0  0  0  0  0  0  0  0  0  0  0  0
   13.0695    6.3705   20.0375 N   0  0  0  0  0  0  0  0  0  0  0  0
    9.1913    8.0876   21.8361 N   0  0  0  0  0  0  0  0  0  0  0  0
   10.4739    9.4813   20.2889 C   0  0  0  0  0  0  0  0  0  0  0  0
    7.5551    7.1270   23.1200 O   0  0  0  0  0  0  0  0  0  0  0  0
  1 11  4  0
  1 21  4  0
  2  4  1  0
  2  8  1  0
  2 11  1  0
  3 10  4  0
  3 14  4  0
  4  5  1  0
  4 18  2  0
  6 12  1  0
  6 17  4  0
  6 23  4  0
  7  9  1  0
  7 13  4  0
  7 19  4  0
  9 20  1  0
 10 19  4  0
 11 25  4  0
 13 14  4  0
 15 16  4  0
 15 17  4  0
 15 21  4  0
 16 24  1  0
 16 25  4  0
 20 24  1  0
 20 26  2  0
 21 23  4  0
 22 23  1  0
M  END
$$$$

 Created by Python create_sdf_string function

 26 28  0  0  0  0  0  0  0  0999 V2000
   12.4616    8.6700   19.4180 N   0  0  0  0  0  0  0  0  0  0  0  0
   11.8329   10.8148   18.6769 N   0  0  0  0  0  0  0  0  0  0  0  0
    6.1021    2.5564   21.0678 C   0  0  0  0  0  0  0  0  0  0  0  0
   10.9097   11.8051   18.4804 C   0  0  0  0  0  0  0  0  0  0  0  0
   11.2280   12.9135   17.5669 C   0  0  0  0  0  0  0  0  0  0  0  0
   12.3782    5.4231   20.7777 C   0  0  0  0  0  0  0  0  0  0  0  0
    7.7365    4.6508   21.6987 C   0  0  0  0  0  0  0  0  0  0  0  0
   13.0186   11.0102   18.0020 C   0  0  0  0  0  0  0  0  0  0  0  0
    8.6628    5.7088   21.8871 N   0  0  0  0  0  0  0  0  0  0  0  0
    5.6516    3.5258   21.9140 C   0  0  0  0  0  0  0  0  0  0  0  0
   11.5863    9.6815   19.4539 C   0  0  0  0  0  0  0  0  0  0  0  0
   12.9648    4.1543   20.9205 C   0  0  0  0  0  0  0  0  0  0  0  0
    8.2089    3.6265   20.8929 C   0  0  0  0  0  0  0  0  0  0  0  0
    7.3827    2.5724   20.5432 C   0  0  0  0  0  0  0  0  0  0  0  0
   11.1529    7.2750   20.8025 C   0  0  0  0  0  0  0  0  0  0  0  0
   10.2573    8.3215   20.9827 C   0  0  0  0  0  0  0  0  0  0  0  0
   11.1606    5.9378   21.2366 N   0  0  0  0  0  0  0  0  0  0  0  0
    9.8932   11.6736   19.0677 O   0  0  0  0  0  0  0  0  0  0  0  0
    6.4470    4.5850   22.2321 C   0  0  0  0  0  0  0  0  0  0  0  0
    8.4619    6.9895   22.2968 C   0  0  0  0  0  0  0  0  0  0  0  0
   12.2747    7.5102   20.0420 C   0  0  0  0  0  0  0  0  0  0  0  0
   14.2544    6.2142   19.4191 C   0  0  0  0  0  0  0  0  0  0  0  0
   13.0695    6.3705   20.0375 N   0  0  0  0  0  0  0  0  0  0  0  0
    9.1913    8.0876   21.8361 N   0  0  0  0  0  0  0  0  0  0  0  0
   10.4739    9.4813   20.2889 C   0  0  0  0  0  0  0  0  0  0  0  0
    7.5551    7.1270   23.1200 O   0  0  0  0  0  0  0  0  0  0  0  0
  1 11  4  0
  1 21  4  0
  2  4  1  0
  2  8  1  0
  2 11  1  0
  3 10  4  0
  3 14  4  0
  4  5  1  0
  4 18  2  0
  6 12  1  0
  6 17  4  0
  6 23  4  0
  7  9  1  0
  7 13  4  0
  7 19  4  0
  9 20  1  0
 10 19  4  0
 11 25  4  0
 13 14  4  0
 15 16  4  0
 15 17  4  0
 15 21  4  0
 16 24  1  0
 16 25  4  0
 20 24  1  0
 20 26  2  0
 21 23  4  0
 22 23  1  0
M  END
$$$$

 Created by Python create_sdf_string function

 26 28  0  0  0  0  0  0  0  0999 V2000
   12.4616    8.6700   19.4180 N   0  0  0  0  0  0  0  0  0  0  0  0
   11.8329   10.8148   18.6769 N   0  0  0  0  0  0  0  0  0  0  0  0
    6.1021    2.5564   21.0678 C   0  0  0  0  0  0  0  0  0  0  0  0
   10.9097   11.8051   18.4804 C   0  0  0  0  0  0  0  0  0  0  0  0
   11.2280   12.9135   17.5669 C   0  0  0  0  0  0  0  0  0  0  0  0
   12.3782    5.4231   20.7777 C   0  0  0  0  0  0  0  0  0  0  0  0
    7.7365    4.6508   21.6987 C   0  0  0  0  0  0  0  0  0  0  0  0
   13.0186   11.0102   18.0020 C   0  0  0  0  0  0  0  0  0  0  0  0
    8.6628    5.7088   21.8871 N   0  0  0  0  0  0  0  0  0  0  0  0
    5.6516    3.5258   21.9140 C   0  0  0  0  0  0  0  0  0  0  0  0
   11.5863    9.6815   19.4539 C   0  0  0  0  0  0  0  0  0  0  0  0
   12.9648    4.1543   20.9205 C   0  0  0  0  0  0  0  0  0  0  0  0
    8.2089    3.6265   20.8929 C   0  0  0  0  0  0  0  0  0  0  0  0
    7.3827    2.5724   20.5432 C   0  0  0  0  0  0  0  0  0  0  0  0
   11.1529    7.2750   20.8025 C   0  0  0  0  0  0  0  0  0  0  0  0
   10.2573    8.3215   20.9827 C   0  0  0  0  0  0  0  0  0  0  0  0
   11.1606    5.9378   21.2366 N   0  0  0  0  0  0  0  0  0  0  0  0
    9.8932   11.6736   19.0677 O   0  0  0  0  0  0  0  0  0  0  0  0
    6.4470    4.5850   22.2321 C   0  0  0  0  0  0  0  0  0  0  0  0
    8.4619    6.9895   22.2968 C   0  0  0  0  0  0  0  0  0  0  0  0
   12.2747    7.5102   20.0420 C   0  0  0  0  0  0  0  0  0  0  0  0
   14.2544    6.2142   19.4191 C   0  0  0  0  0  0  0  0  0  0  0  0
   13.0695    6.3705   20.0375 N   0  0  0  0  0  0  0  0  0  0  0  0
    9.1913    8.0876   21.8361 N   0  0  0  0  0  0  0  0  0  0  0  0
   10.4739    9.4813   20.2889 C   0  0  0  0  0  0  0  0  0  0  0  0
    7.5551    7.1270   23.1200 O   0  0  0  0  0  0  0  0  0  0  0  0
  1 11  4  0
  1 21  4  0
  2  4  1  0
  2  8  1  0
  2 11  1  0
  3 10  4  0
  3 14  4  0
  4  5  1  0
  4 18  2  0
  6 12  1  0
  6 17  4  0
  6 23  4  0
  7  9  1  0
  7 13  4  0
  7 19  4  0
  9 20  1  0
 10 19  4  0
 11 25  4  0
 13 14  4  0
 15 16  4  0
 15 17  4  0
 15 21  4  0
 16 24  1  0
 16 25  4  0
 20 24  1  0
 20 26  2  0
 21 23  4  0
 22 23  1  0
M  END
$$$$

 Created by Python create_sdf_string function

 26 28  0  0  0  0  0  0  0  0999 V2000
   12.4616    8.6700   19.4180 N   0  0  0  0  0  0  0  0  0  0  0  0
   11.8329   10.8148   18.6769 N   0  0  0  0  0  0  0  0  0  0  0  0
    6.1021    2.5564   21.0678 C   0  0  0  0  0  0  0  0  0  0  0  0
   10.9097   11.8051   18.4804 C   0  0  0  0  0  0  0  0  0  0  0  0
   11.2280   12.9135   17.5669 C   0  0  0  0  0  0  0  0  0  0  0  0
   12.3782    5.4231   20.7777 C   0  0  0  0  0  0  0  0  0  0  0  0
    7.7365    4.6508   21.6987 C   0  0  0  0  0  0  0  0  0  0  0  0
   13.0186   11.0102   18.0020 C   0  0  0  0  0  0  0  0  0  0  0  0
    8.6628    5.7088   21.8871 N   0  0  0  0  0  0  0  0  0  0  0  0
    5.6516    3.5258   21.9140 C   0  0  0  0  0  0  0  0  0  0  0  0
   11.5863    9.6815   19.4539 C   0  0  0  0  0  0  0  0  0  0  0  0
   12.9648    4.1543   20.9205 C   0  0  0  0  0  0  0  0  0  0  0  0
    8.2089    3.6265   20.8929 C   0  0  0  0  0  0  0  0  0  0  0  0
    7.3827    2.5724   20.5432 C   0  0  0  0  0  0  0  0  0  0  0  0
   11.1529    7.2750   20.8025 C   0  0  0  0  0  0  0  0  0  0  0  0
   10.2573    8.3215   20.9827 C   0  0  0  0  0  0  0  0  0  0  0  0
   11.1606    5.9378   21.2366 N   0  0  0  0  0  0  0  0  0  0  0  0
    9.8932   11.6736   19.0677 O   0  0  0  0  0  0  0  0  0  0  0  0
    6.4470    4.5850   22.2321 C   0  0  0  0  0  0  0  0  0  0  0  0
    8.4619    6.9895   22.2968 C   0  0  0  0  0  0  0  0  0  0  0  0
   12.2747    7.5102   20.0420 C   0  0  0  0  0  0  0  0  0  0  0  0
   14.2544    6.2142   19.4191 C   0  0  0  0  0  0  0  0  0  0  0  0
   13.0695    6.3705   20.0375 N   0  0  0  0  0  0  0  0  0  0  0  0
    9.1913    8.0876   21.8361 N   0  0  0  0  0  0  0  0  0  0  0  0
   10.4739    9.4813   20.2889 C   0  0  0  0  0  0  0  0  0  0  0  0
    7.5551    7.1270   23.1200 O   0  0  0  0  0  0  0  0  0  0  0  0
  1 11  4  0
  1 21  4  0
  2  4  1  0
  2  8  1  0
  2 11  1  0
  3 10  4  0
  3 14  4  0
  4  5  1  0
  4 18  2  0
  6 12  1  0
  6 17  4  0
  6 23  4  0
  7  9  1  0
  7 13  4  0
  7 19  4  0
  9 20  1  0
 10 19  4  0
 11 25  4  0
 13 14  4  0
 15 16  4  0
 15 17  4  0
 15 21  4  0
 16 24  1  0
 16 25  4  0
 20 24  1  0
 20 26  2  0
 21 23  4  0
 22 23  1  0
M  END
$$$$

 Created by Python create_sdf_string function

 26 28  0  0  0  0  0  0  0  0999 V2000
   12.4616    8.6700   19.4180 N   0  0  0  0  0  0  0  0  0  0  0  0
   11.8329   10.8148   18.6769 N   0  0  0  0  0  0  0  0  0  0  0  0
    6.1021    2.5564   21.0678 C   0  0  0  0  0  0  0  0  0  0  0  0
   10.9097   11.8051   18.4804 C   0  0  0  0  0  0  0  0  0  0  0  0
   11.2280   12.9135   17.5669 C   0  0  0  0  0  0  0  0  0  0  0  0
   12.3782    5.4231   20.7777 C   0  0  0  0  0  0  0  0  0  0  0  0
    7.7365    4.6508   21.6987 C   0  0  0  0  0  0  0  0  0  0  0  0
   13.0186   11.0102   18.0020 C   0  0  0  0  0  0  0  0  0  0  0  0
    8.6628    5.7088   21.8871 N   0  0  0  0  0  0  0  0  0  0  0  0
    5.6516    3.5258   21.9140 C   0  0  0  0  0  0  0  0  0  0  0  0
   11.5863    9.6815   19.4539 C   0  0  0  0  0  0  0  0  0  0  0  0
   12.9648    4.1543   20.9205 C   0  0  0  0  0  0  0  0  0  0  0  0
    8.2089    3.6265   20.8929 C   0  0  0  0  0  0  0  0  0  0  0  0
    7.3827    2.5724   20.5432 C   0  0  0  0  0  0  0  0  0  0  0  0
   11.1529    7.2750   20.8025 C   0  0  0  0  0  0  0  0  0  0  0  0
   10.2573    8.3215   20.9827 C   0  0  0  0  0  0  0  0  0  0  0  0
   11.1606    5.9378   21.2366 N   0  0  0  0  0  0  0  0  0  0  0  0
    9.8932   11.6736   19.0677 O   0  0  0  0  0  0  0  0  0  0  0  0
    6.4470    4.5850   22.2321 C   0  0  0  0  0  0  0  0  0  0  0  0
    8.4619    6.9895   22.2968 C   0  0  0  0  0  0  0  0  0  0  0  0
   12.2747    7.5102   20.0420 C   0  0  0  0  0  0  0  0  0  0  0  0
   14.2544    6.2142   19.4191 C   0  0  0  0  0  0  0  0  0  0  0  0
   13.0695    6.3705   20.0375 N   0  0  0  0  0  0  0  0  0  0  0  0
    9.1913    8.0876   21.8361 N   0  0  0  0  0  0  0  0  0  0  0  0
   10.4739    9.4813   20.2889 C   0  0  0  0  0  0  0  0  0  0  0  0
    7.5551    7.1270   23.1200 O   0  0  0  0  0  0  0  0  0  0  0  0
  1 11  4  0
  1 21  4  0
  2  4  1  0
  2  8  1  0
  2 11  1  0
  3 10  4  0
  3 14  4  0
  4  5  1  0
  4 18  2  0
  6 12  1  0
  6 17  4  0
  6 23  4  0
  7  9  1  0
  7 13  4  0
  7 19  4  0
  9 20  1  0
 10 19  4  0
 11 25  4  0
 13 14  4  0
 15 16  4  0
 15 17  4  0
 15 21  4  0
 16 24  1  0
 16 25  4  0
 20 24  1  0
 20 26  2  0
 21 23  4  0
 22 23  1  0
M  END
$$$$

 Created by Python create_sdf_string function

 26 28  0  0  0  0  0  0  0  0999 V2000
   12.4616    8.6700   19.4180 N   0  0  0  0  0  0  0  0  0  0  0  0
   11.8329   10.8148   18.6769 N   0  0  0  0  0  0  0  0  0  0  0  0
    6.1021    2.5564   21.0678 C   0  0  0  0  0  0  0  0  0  0  0  0
   10.9097   11.8051   18.4804 C   0  0  0  0  0  0  0  0  0  0  0  0
   11.2280   12.9135   17.5669 C   0  0  0  0  0  0  0  0  0  0  0  0
   12.3782    5.4231   20.7777 C   0  0  0  0  0  0  0  0  0  0  0  0
    7.7365    4.6508   21.6987 C   0  0  0  0  0  0  0  0  0  0  0  0
   13.0186   11.0102   18.0020 C   0  0  0  0  0  0  0  0  0  0  0  0
    8.6628    5.7088   21.8871 N   0  0  0  0  0  0  0  0  0  0  0  0
    5.6516    3.5258   21.9140 C   0  0  0  0  0  0  0  0  0  0  0  0
   11.5863    9.6815   19.4539 C   0  0  0  0  0  0  0  0  0  0  0  0
   12.9648    4.1543   20.9205 C   0  0  0  0  0  0  0  0  0  0  0  0
    8.2089    3.6265   20.8929 C   0  0  0  0  0  0  0  0  0  0  0  0
    7.3827    2.5724   20.5432 C   0  0  0  0  0  0  0  0  0  0  0  0
   11.1529    7.2750   20.8025 C   0  0  0  0  0  0  0  0  0  0  0  0
   10.2573    8.3215   20.9827 C   0  0  0  0  0  0  0  0  0  0  0  0
   11.1606    5.9378   21.2366 N   0  0  0  0  0  0  0  0  0  0  0  0
    9.8932   11.6736   19.0677 O   0  0  0  0  0  0  0  0  0  0  0  0
    6.4470    4.5850   22.2321 C   0  0  0  0  0  0  0  0  0  0  0  0
    8.4619    6.9895   22.2968 C   0  0  0  0  0  0  0  0  0  0  0  0
   12.2747    7.5102   20.0420 C   0  0  0  0  0  0  0  0  0  0  0  0
   14.2544    6.2142   19.4191 C   0  0  0  0  0  0  0  0  0  0  0  0
   13.0695    6.3705   20.0375 N   0  0  0  0  0  0  0  0  0  0  0  0
    9.1913    8.0876   21.8361 N   0  0  0  0  0  0  0  0  0  0  0  0
   10.4739    9.4813   20.2889 C   0  0  0  0  0  0  0  0  0  0  0  0
    7.5551    7.1270   23.1200 O   0  0  0  0  0  0  0  0  0  0  0  0
  1 11  4  0
  1 21  4  0
  2  4  1  0
  2  8  1  0
  2 11  1  0
  3 10  4  0
  3 14  4  0
  4  5  1  0
  4 18  2  0
  6 12  1  0
  6 17  4  0
  6 23  4  0
  7  9  1  0
  7 13  4  0
  7 19  4  0
  9 20  1  0
 10 19  4  0
 11 25  4  0
 13 14  4  0
 15 16  4  0
 15 17  4  0
 15 21  4  0
 16 24  1  0
 16 25  4  0
 20 24  1  0
 20 26  2  0
 21 23  4  0
 22 23  1  0
M  END
$$$$

 Created by Python create_sdf_string function

 26 28  0  0  0  0  0  0  0  0999 V2000
   12.4616    8.6700   19.4180 N   0  0  0  0  0  0  0  0  0  0  0  0
   11.8329   10.8148   18.6769 N   0  0  0  0  0  0  0  0  0  0  0  0
    6.1021    2.5564   21.0678 C   0  0  0  0  0  0  0  0  0  0  0  0
   10.9097   11.8051   18.4804 C   0  0  0  0  0  0  0  0  0  0  0  0
   11.2280   12.9135   17.5669 C   0  0  0  0  0  0  0  0  0  0  0  0
   12.3782    5.4231   20.7777 C   0  0  0  0  0  0  0  0  0  0  0  0
    7.7365    4.6508   21.6987 C   0  0  0  0  0  0  0  0  0  0  0  0
   13.0186   11.0102   18.0020 C   0  0  0  0  0  0  0  0  0  0  0  0
    8.6628    5.7088   21.8871 N   0  0  0  0  0  0  0  0  0  0  0  0
    5.6516    3.5258   21.9140 C   0  0  0  0  0  0  0  0  0  0  0  0
   11.5863    9.6815   19.4539 C   0  0  0  0  0  0  0  0  0  0  0  0
   12.9648    4.1543   20.9205 C   0  0  0  0  0  0  0  0  0  0  0  0
    8.2089    3.6265   20.8929 C   0  0  0  0  0  0  0  0  0  0  0  0
    7.3827    2.5724   20.5432 C   0  0  0  0  0  0  0  0  0  0  0  0
   11.1529    7.2750   20.8025 C   0  0  0  0  0  0  0  0  0  0  0  0
   10.2573    8.3215   20.9827 C   0  0  0  0  0  0  0  0  0  0  0  0
   11.1606    5.9378   21.2366 N   0  0  0  0  0  0  0  0  0  0  0  0
    9.8932   11.6736   19.0677 O   0  0  0  0  0  0  0  0  0  0  0  0
    6.4470    4.5850   22.2321 C   0  0  0  0  0  0  0  0  0  0  0  0
    8.4619    6.9895   22.2968 C   0  0  0  0  0  0  0  0  0  0  0  0
   12.2747    7.5102   20.0420 C   0  0  0  0  0  0  0  0  0  0  0  0
   14.2544    6.2142   19.4191 C   0  0  0  0  0  0  0  0  0  0  0  0
   13.0695    6.3705   20.0375 N   0  0  0  0  0  0  0  0  0  0  0  0
    9.1913    8.0876   21.8361 N   0  0  0  0  0  0  0  0  0  0  0  0
   10.4739    9.4813   20.2889 C   0  0  0  0  0  0  0  0  0  0  0  0
    7.5551    7.1270   23.1200 O   0  0  0  0  0  0  0  0  0  0  0  0
  1 11  4  0
  1 21  4  0
  2  4  1  0
  2  8  1  0
  2 11  1  0
  3 10  4  0
  3 14  4  0
  4  5  1  0
  4 18  2  0
  6 12  1  0
  6 17  4  0
  6 23  4  0
  7  9  1  0
  7 13  4  0
  7 19  4  0
  9 20  1  0
 10 19  4  0
 11 25  4  0
 13 14  4  0
 15 16  4  0
 15 17  4  0
 15 21  4  0
 16 24  1  0
 16 25  4  0
 20 24  1  0
 20 26  2  0
 21 23  4  0
 22 23  1  0
M  END
$$$$

 Created by Python create_sdf_string function

 26 28  0  0  0  0  0  0  0  0999 V2000
   12.4616    8.6700   19.4180 N   0  0  0  0  0  0  0  0  0  0  0  0
   11.8329   10.8148   18.6769 N   0  0  0  0  0  0  0  0  0  0  0  0
    6.1021    2.5564   21.0678 C   0  0  0  0  0  0  0  0  0  0  0  0
   10.9097   11.8051   18.4804 C   0  0  0  0  0  0  0  0  0  0  0  0
   11.2280   12.9135   17.5669 C   0  0  0  0  0  0  0  0  0  0  0  0
   12.3782    5.4231   20.7777 C   0  0  0  0  0  0  0  0  0  0  0  0
    7.7365    4.6508   21.6987 C   0  0  0  0  0  0  0  0  0  0  0  0
   13.0186   11.0102   18.0020 C   0  0  0  0  0  0  0  0  0  0  0  0
    8.6628    5.7088   21.8871 N   0  0  0  0  0  0  0  0  0  0  0  0
    5.6516    3.5258   21.9140 C   0  0  0  0  0  0  0  0  0  0  0  0
   11.5863    9.6815   19.4539 C   0  0  0  0  0  0  0  0  0  0  0  0
   12.9648    4.1543   20.9205 C   0  0  0  0  0  0  0  0  0  0  0  0
    8.2089    3.6265   20.8929 C   0  0  0  0  0  0  0  0  0  0  0  0
    7.3827    2.5724   20.5432 C   0  0  0  0  0  0  0  0  0  0  0  0
   11.1529    7.2750   20.8025 C   0  0  0  0  0  0  0  0  0  0  0  0
   10.2573    8.3215   20.9827 C   0  0  0  0  0  0  0  0  0  0  0  0
   11.1606    5.9378   21.2366 N   0  0  0  0  0  0  0  0  0  0  0  0
    9.8932   11.6736   19.0677 O   0  0  0  0  0  0  0  0  0  0  0  0
    6.4470    4.5850   22.2321 C   0  0  0  0  0  0  0  0  0  0  0  0
    8.4619    6.9895   22.2968 C   0  0  0  0  0  0  0  0  0  0  0  0
   12.2747    7.5102   20.0420 C   0  0  0  0  0  0  0  0  0  0  0  0
   14.2544    6.2142   19.4191 C   0  0  0  0  0  0  0  0  0  0  0  0
   13.0695    6.3705   20.0375 N   0  0  0  0  0  0  0  0  0  0  0  0
    9.1913    8.0876   21.8361 N   0  0  0  0  0  0  0  0  0  0  0  0
   10.4739    9.4813   20.2889 C   0  0  0  0  0  0  0  0  0  0  0  0
    7.5551    7.1270   23.1200 O   0  0  0  0  0  0  0  0  0  0  0  0
  1 11  4  0
  1 21  4  0
  2  4  1  0
  2  8  1  0
  2 11  1  0
  3 10  4  0
  3 14  4  0
  4  5  1  0
  4 18  2  0
  6 12  1  0
  6 17  4  0
  6 23  4  0
  7  9  1  0
  7 13  4  0
  7 19  4  0
  9 20  1  0
 10 19  4  0
 11 25  4  0
 13 14  4  0
 15 16  4  0
 15 17  4  0
 15 21  4  0
 16 24  1  0
 16 25  4  0
 20 24  1  0
 20 26  2  0
 21 23  4  0
 22 23  1  0
M  END
$$$$

 Created by Python create_sdf_string function

 26 28  0  0  0  0  0  0  0  0999 V2000
   12.4616    8.6700   19.4180 N   0  0  0  0  0  0  0  0  0  0  0  0
   11.8329   10.8148   18.6769 N   0  0  0  0  0  0  0  0  0  0  0  0
    6.1021    2.5564   21.0678 C   0  0  0  0  0  0  0  0  0  0  0  0
   10.9097   11.8051   18.4804 C   0  0  0  0  0  0  0  0  0  0  0  0
   11.2280   12.9135   17.5669 C   0  0  0  0  0  0  0  0  0  0  0  0
   12.3782    5.4231   20.7777 C   0  0  0  0  0  0  0  0  0  0  0  0
    7.7365    4.6508   21.6987 C   0  0  0  0  0  0  0  0  0  0  0  0
   13.0186   11.0102   18.0020 C   0  0  0  0  0  0  0  0  0  0  0  0
    8.6628    5.7088   21.8871 N   0  0  0  0  0  0  0  0  0  0  0  0
    5.6516    3.5258   21.9140 C   0  0  0  0  0  0  0  0  0  0  0  0
   11.5863    9.6815   19.4539 C   0  0  0  0  0  0  0  0  0  0  0  0
   12.9648    4.1543   20.9205 C   0  0  0  0  0  0  0  0  0  0  0  0
    8.2089    3.6265   20.8929 C   0  0  0  0  0  0  0  0  0  0  0  0
    7.3827    2.5724   20.5432 C   0  0  0  0  0  0  0  0  0  0  0  0
   11.1529    7.2750   20.8025 C   0  0  0  0  0  0  0  0  0  0  0  0
   10.2573    8.3215   20.9827 C   0  0  0  0  0  0  0  0  0  0  0  0
   11.1606    5.9378   21.2366 N   0  0  0  0  0  0  0  0  0  0  0  0
    9.8932   11.6736   19.0677 O   0  0  0  0  0  0  0  0  0  0  0  0
    6.4470    4.5850   22.2321 C   0  0  0  0  0  0  0  0  0  0  0  0
    8.4619    6.9895   22.2968 C   0  0  0  0  0  0  0  0  0  0  0  0
   12.2747    7.5102   20.0420 C   0  0  0  0  0  0  0  0  0  0  0  0
   14.2544    6.2142   19.4191 C   0  0  0  0  0  0  0  0  0  0  0  0
   13.0695    6.3705   20.0375 N   0  0  0  0  0  0  0  0  0  0  0  0
    9.1913    8.0876   21.8361 N   0  0  0  0  0  0  0  0  0  0  0  0
   10.4739    9.4813   20.2889 C   0  0  0  0  0  0  0  0  0  0  0  0
    7.5551    7.1270   23.1200 O   0  0  0  0  0  0  0  0  0  0  0  0
  1 11  4  0
  1 21  4  0
  2  4  1  0
  2  8  1  0
  2 11  1  0
  3 10  4  0
  3 14  4  0
  4  5  1  0
  4 18  2  0
  6 12  1  0
  6 17  4  0
  6 23  4  0
  7  9  1  0
  7 13  4  0
  7 19  4  0
  9 20  1  0
 10 19  4  0
 11 25  4  0
 13 14  4  0
 15 16  4  0
 15 17  4  0
 15 21  4  0
 16 24  1  0
 16 25  4  0
 20 24  1  0
 20 26  2  0
 21 23  4  0
 22 23  1  0
M  END
$$$$

 Created by Python create_sdf_string function

 26 28  0  0  0  0  0  0  0  0999 V2000
   12.4616    8.6700   19.4180 N   0  0  0  0  0  0  0  0  0  0  0  0
   11.8329   10.8148   18.6769 N   0  0  0  0  0  0  0  0  0  0  0  0
    6.1021    2.5564   21.0678 C   0  0  0  0  0  0  0  0  0  0  0  0
   10.9097   11.8051   18.4804 C   0  0  0  0  0  0  0  0  0  0  0  0
   11.2280   12.9135   17.5669 C   0  0  0  0  0  0  0  0  0  0  0  0
   12.3782    5.4231   20.7777 C   0  0  0  0  0  0  0  0  0  0  0  0
    7.7365    4.6508   21.6987 C   0  0  0  0  0  0  0  0  0  0  0  0
   13.0186   11.0102   18.0020 C   0  0  0  0  0  0  0  0  0  0  0  0
    8.6628    5.7088   21.8871 N   0  0  0  0  0  0  0  0  0  0  0  0
    5.6516    3.5258   21.9140 C   0  0  0  0  0  0  0  0  0  0  0  0
   11.5863    9.6815   19.4539 C   0  0  0  0  0  0  0  0  0  0  0  0
   12.9648    4.1543   20.9205 C   0  0  0  0  0  0  0  0  0  0  0  0
    8.2089    3.6265   20.8929 C   0  0  0  0  0  0  0  0  0  0  0  0
    7.3827    2.5724   20.5432 C   0  0  0  0  0  0  0  0  0  0  0  0
   11.1529    7.2750   20.8025 C   0  0  0  0  0  0  0  0  0  0  0  0
   10.2573    8.3215   20.9827 C   0  0  0  0  0  0  0  0  0  0  0  0
   11.1606    5.9378   21.2366 N   0  0  0  0  0  0  0  0  0  0  0  0
    9.8932   11.6736   19.0677 O   0  0  0  0  0  0  0  0  0  0  0  0
    6.4470    4.5850   22.2321 C   0  0  0  0  0  0  0  0  0  0  0  0
    8.4619    6.9895   22.2968 C   0  0  0  0  0  0  0  0  0  0  0  0
   12.2747    7.5102   20.0420 C   0  0  0  0  0  0  0  0  0  0  0  0
   14.2544    6.2142   19.4191 C   0  0  0  0  0  0  0  0  0  0  0  0
   13.0695    6.3705   20.0375 N   0  0  0  0  0  0  0  0  0  0  0  0
    9.1913    8.0876   21.8361 N   0  0  0  0  0  0  0  0  0  0  0  0
   10.4739    9.4813   20.2889 C   0  0  0  0  0  0  0  0  0  0  0  0
    7.5551    7.1270   23.1200 O   0  0  0  0  0  0  0  0  0  0  0  0
  1 11  4  0
  1 21  4  0
  2  4  1  0
  2  8  1  0
  2 11  1  0
  3 10  4  0
  3 14  4  0
  4  5  1  0
  4 18  2  0
  6 12  1  0
  6 17  4  0
  6 23  4  0
  7  9  1  0
  7 13  4  0
  7 19  4  0
  9 20  1  0
 10 19  4  0
 11 25  4  0
 13 14  4  0
 15 16  4  0
 15 17  4  0
 15 21  4  0
 16 24  1  0
 16 25  4  0
 20 24  1  0
 20 26  2  0
 21 23  4  0
 22 23  1  0
M  END
$$$$

 Created by Python create_sdf_string function

 26 28  0  0  0  0  0  0  0  0999 V2000
   12.4616    8.6700   19.4180 N   0  0  0  0  0  0  0  0  0  0  0  0
   11.8329   10.8148   18.6769 N   0  0  0  0  0  0  0  0  0  0  0  0
    6.1021    2.5564   21.0678 C   0  0  0  0  0  0  0  0  0  0  0  0
   10.9097   11.8051   18.4804 C   0  0  0  0  0  0  0  0  0  0  0  0
   11.2280   12.9135   17.5669 C   0  0  0  0  0  0  0  0  0  0  0  0
   12.3782    5.4231   20.7777 C   0  0  0  0  0  0  0  0  0  0  0  0
    7.7365    4.6508   21.6987 C   0  0  0  0  0  0  0  0  0  0  0  0
   13.0186   11.0102   18.0020 C   0  0  0  0  0  0  0  0  0  0  0  0
    8.6628    5.7088   21.8871 N   0  0  0  0  0  0  0  0  0  0  0  0
    5.6516    3.5258   21.9140 C   0  0  0  0  0  0  0  0  0  0  0  0
   11.5863    9.6815   19.4539 C   0  0  0  0  0  0  0  0  0  0  0  0
   12.9648    4.1543   20.9205 C   0  0  0  0  0  0  0  0  0  0  0  0
    8.2089    3.6265   20.8929 C   0  0  0  0  0  0  0  0  0  0  0  0
    7.3827    2.5724   20.5432 C   0  0  0  0  0  0  0  0  0  0  0  0
   11.1529    7.2750   20.8025 C   0  0  0  0  0  0  0  0  0  0  0  0
   10.2573    8.3215   20.9827 C   0  0  0  0  0  0  0  0  0  0  0  0
   11.1606    5.9378   21.2366 N   0  0  0  0  0  0  0  0  0  0  0  0
    9.8932   11.6736   19.0677 O   0  0  0  0  0  0  0  0  0  0  0  0
    6.4470    4.5850   22.2321 C   0  0  0  0  0  0  0  0  0  0  0  0
    8.4619    6.9895   22.2968 C   0  0  0  0  0  0  0  0  0  0  0  0
   12.2747    7.5102   20.0420 C   0  0  0  0  0  0  0  0  0  0  0  0
   14.2544    6.2142   19.4191 C   0  0  0  0  0  0  0  0  0  0  0  0
   13.0695    6.3705   20.0375 N   0  0  0  0  0  0  0  0  0  0  0  0
    9.1913    8.0876   21.8361 N   0  0  0  0  0  0  0  0  0  0  0  0
   10.4739    9.4813   20.2889 C   0  0  0  0  0  0  0  0  0  0  0  0
    7.5551    7.1270   23.1200 O   0  0  0  0  0  0  0  0  0  0  0  0
  1 11  4  0
  1 21  4  0
  2  4  1  0
  2  8  1  0
  2 11  1  0
  3 10  4  0
  3 14  4  0
  4  5  1  0
  4 18  2  0
  6 12  1  0
  6 17  4  0
  6 23  4  0
  7  9  1  0
  7 13  4  0
  7 19  4  0
  9 20  1  0
 10 19  4  0
 11 25  4  0
 13 14  4  0
 15 16  4  0
 15 17  4  0
 15 21  4  0
 16 24  1  0
 16 25  4  0
 20 24  1  0
 20 26  2  0
 21 23  4  0
 22 23  1  0
M  END
$$$$

 Created by Python create_sdf_string function

 26 28  0  0  0  0  0  0  0  0999 V2000
   12.4616    8.6700   19.4180 N   0  0  0  0  0  0  0  0  0  0  0  0
   11.8329   10.8148   18.6769 N   0  0  0  0  0  0  0  0  0  0  0  0
    6.1021    2.5564   21.0678 C   0  0  0  0  0  0  0  0  0  0  0  0
   10.9097   11.8051   18.4804 C   0  0  0  0  0  0  0  0  0  0  0  0
   11.2280   12.9135   17.5669 C   0  0  0  0  0  0  0  0  0  0  0  0
   12.3782    5.4231   20.7777 C   0  0  0  0  0  0  0  0  0  0  0  0
    7.7365    4.6508   21.6987 C   0  0  0  0  0  0  0  0  0  0  0  0
   13.0186   11.0102   18.0020 C   0  0  0  0  0  0  0  0  0  0  0  0
    8.6628    5.7088   21.8871 N   0  0  0  0  0  0  0  0  0  0  0  0
    5.6516    3.5258   21.9140 C   0  0  0  0  0  0  0  0  0  0  0  0
   11.5863    9.6815   19.4539 C   0  0  0  0  0  0  0  0  0  0  0  0
   12.9648    4.1543   20.9205 C   0  0  0  0  0  0  0  0  0  0  0  0
    8.2089    3.6265   20.8929 C   0  0  0  0  0  0  0  0  0  0  0  0
    7.3827    2.5724   20.5432 C   0  0  0  0  0  0  0  0  0  0  0  0
   11.1529    7.2750   20.8025 C   0  0  0  0  0  0  0  0  0  0  0  0
   10.2573    8.3215   20.9827 C   0  0  0  0  0  0  0  0  0  0  0  0
   11.1606    5.9378   21.2366 N   0  0  0  0  0  0  0  0  0  0  0  0
    9.8932   11.6736   19.0677 O   0  0  0  0  0  0  0  0  0  0  0  0
    6.4470    4.5850   22.2321 C   0  0  0  0  0  0  0  0  0  0  0  0
    8.4619    6.9895   22.2968 C   0  0  0  0  0  0  0  0  0  0  0  0
   12.2747    7.5102   20.0420 C   0  0  0  0  0  0  0  0  0  0  0  0
   14.2544    6.2142   19.4191 C   0  0  0  0  0  0  0  0  0  0  0  0
   13.0695    6.3705   20.0375 N   0  0  0  0  0  0  0  0  0  0  0  0
    9.1913    8.0876   21.8361 N   0  0  0  0  0  0  0  0  0  0  0  0
   10.4739    9.4813   20.2889 C   0  0  0  0  0  0  0  0  0  0  0  0
    7.5551    7.1270   23.1200 O   0  0  0  0  0  0  0  0  0  0  0  0
  1 11  4  0
  1 21  4  0
  2  4  1  0
  2  8  1  0
  2 11  1  0
  3 10  4  0
  3 14  4  0
  4  5  1  0
  4 18  2  0
  6 12  1  0
  6 17  4  0
  6 23  4  0
  7  9  1  0
  7 13  4  0
  7 19  4  0
  9 20  1  0
 10 19  4  0
 11 25  4  0
 13 14  4  0
 15 16  4  0
 15 17  4  0
 15 21  4  0
 16 24  1  0
 16 25  4  0
 20 24  1  0
 20 26  2  0
 21 23  4  0
 22 23  1  0
M  END
$$$$

 Created by Python create_sdf_string function

 26 28  0  0  0  0  0  0  0  0999 V2000
   12.4616    8.6700   19.4180 N   0  0  0  0  0  0  0  0  0  0  0  0
   11.8329   10.8148   18.6769 N   0  0  0  0  0  0  0  0  0  0  0  0
    6.1021    2.5564   21.0678 C   0  0  0  0  0  0  0  0  0  0  0  0
   10.9097   11.8051   18.4804 C   0  0  0  0  0  0  0  0  0  0  0  0
   11.2280   12.9135   17.5669 C   0  0  0  0  0  0  0  0  0  0  0  0
   12.3782    5.4231   20.7777 C   0  0  0  0  0  0  0  0  0  0  0  0
    7.7365    4.6508   21.6987 C   0  0  0  0  0  0  0  0  0  0  0  0
   13.0186   11.0102   18.0020 C   0  0  0  0  0  0  0  0  0  0  0  0
    8.6628    5.7088   21.8871 N   0  0  0  0  0  0  0  0  0  0  0  0
    5.6516    3.5258   21.9140 C   0  0  0  0  0  0  0  0  0  0  0  0
   11.5863    9.6815   19.4539 C   0  0  0  0  0  0  0  0  0  0  0  0
   12.9648    4.1543   20.9205 C   0  0  0  0  0  0  0  0  0  0  0  0
    8.2089    3.6265   20.8929 C   0  0  0  0  0  0  0  0  0  0  0  0
    7.3827    2.5724   20.5432 C   0  0  0  0  0  0  0  0  0  0  0  0
   11.1529    7.2750   20.8025 C   0  0  0  0  0  0  0  0  0  0  0  0
   10.2573    8.3215   20.9827 C   0  0  0  0  0  0  0  0  0  0  0  0
   11.1606    5.9378   21.2366 N   0  0  0  0  0  0  0  0  0  0  0  0
    9.8932   11.6736   19.0677 O   0  0  0  0  0  0  0  0  0  0  0  0
    6.4470    4.5850   22.2321 C   0  0  0  0  0  0  0  0  0  0  0  0
    8.4619    6.9895   22.2968 C   0  0  0  0  0  0  0  0  0  0  0  0
   12.2747    7.5102   20.0420 C   0  0  0  0  0  0  0  0  0  0  0  0
   14.2544    6.2142   19.4191 C   0  0  0  0  0  0  0  0  0  0  0  0
   13.0695    6.3705   20.0375 N   0  0  0  0  0  0  0  0  0  0  0  0
    9.1913    8.0876   21.8361 N   0  0  0  0  0  0  0  0  0  0  0  0
   10.4739    9.4813   20.2889 C   0  0  0  0  0  0  0  0  0  0  0  0
    7.5551    7.1270   23.1200 O   0  0  0  0  0  0  0  0  0  0  0  0
  1 11  4  0
  1 21  4  0
  2  4  1  0
  2  8  1  0
  2 11  1  0
  3 10  4  0
  3 14  4  0
  4  5  1  0
  4 18  2  0
  6 12  1  0
  6 17  4  0
  6 23  4  0
  7  9  1  0
  7 13  4  0
  7 19  4  0
  9 20  1  0
 10 19  4  0
 11 25  4  0
 13 14  4  0
 15 16  4  0
 15 17  4  0
 15 21  4  0
 16 24  1  0
 16 25  4  0
 20 24  1  0
 20 26  2  0
 21 23  4  0
 22 23  1  0
M  END
$$$$

 Created by Python create_sdf_string function

 26 28  0  0  0  0  0  0  0  0999 V2000
   12.4616    8.6700   19.4180 N   0  0  0  0  0  0  0  0  0  0  0  0
   11.8329   10.8148   18.6769 N   0  0  0  0  0  0  0  0  0  0  0  0
    6.1021    2.5564   21.0678 C   0  0  0  0  0  0  0  0  0  0  0  0
   10.9097   11.8051   18.4804 C   0  0  0  0  0  0  0  0  0  0  0  0
   11.2280   12.9135   17.5669 C   0  0  0  0  0  0  0  0  0  0  0  0
   12.3782    5.4231   20.7777 C   0  0  0  0  0  0  0  0  0  0  0  0
    7.7365    4.6508   21.6987 C   0  0  0  0  0  0  0  0  0  0  0  0
   13.0186   11.0102   18.0020 C   0  0  0  0  0  0  0  0  0  0  0  0
    8.6628    5.7088   21.8871 N   0  0  0  0  0  0  0  0  0  0  0  0
    5.6516    3.5258   21.9140 C   0  0  0  0  0  0  0  0  0  0  0  0
   11.5863    9.6815   19.4539 C   0  0  0  0  0  0  0  0  0  0  0  0
   12.9648    4.1543   20.9205 C   0  0  0  0  0  0  0  0  0  0  0  0
    8.2089    3.6265   20.8929 C   0  0  0  0  0  0  0  0  0  0  0  0
    7.3827    2.5724   20.5432 C   0  0  0  0  0  0  0  0  0  0  0  0
   11.1529    7.2750   20.8025 C   0  0  0  0  0  0  0  0  0  0  0  0
   10.2573    8.3215   20.9827 C   0  0  0  0  0  0  0  0  0  0  0  0
   11.1606    5.9378   21.2366 N   0  0  0  0  0  0  0  0  0  0  0  0
    9.8932   11.6736   19.0677 O   0  0  0  0  0  0  0  0  0  0  0  0
    6.4470    4.5850   22.2321 C   0  0  0  0  0  0  0  0  0  0  0  0
    8.4619    6.9895   22.2968 C   0  0  0  0  0  0  0  0  0  0  0  0
   12.2747    7.5102   20.0420 C   0  0  0  0  0  0  0  0  0  0  0  0
   14.2544    6.2142   19.4191 C   0  0  0  0  0  0  0  0  0  0  0  0
   13.0695    6.3705   20.0375 N   0  0  0  0  0  0  0  0  0  0  0  0
    9.1913    8.0876   21.8361 N   0  0  0  0  0  0  0  0  0  0  0  0
   10.4739    9.4813   20.2889 C   0  0  0  0  0  0  0  0  0  0  0  0
    7.5551    7.1270   23.1200 O   0  0  0  0  0  0  0  0  0  0  0  0
  1 11  4  0
  1 21  4  0
  2  4  1  0
  2  8  1  0
  2 11  1  0
  3 10  4  0
  3 14  4  0
  4  5  1  0
  4 18  2  0
  6 12  1  0
  6 17  4  0
  6 23  4  0
  7  9  1  0
  7 13  4  0
  7 19  4  0
  9 20  1  0
 10 19  4  0
 11 25  4  0
 13 14  4  0
 15 16  4  0
 15 17  4  0
 15 21  4  0
 16 24  1  0
 16 25  4  0
 20 24  1  0
 20 26  2  0
 21 23  4  0
 22 23  1  0
M  END
$$$$

 Created by Python create_sdf_string function

 26 28  0  0  0  0  0  0  0  0999 V2000
   12.4616    8.6700   19.4180 N   0  0  0  0  0  0  0  0  0  0  0  0
   11.8329   10.8148   18.6769 N   0  0  0  0  0  0  0  0  0  0  0  0
    6.1021    2.5564   21.0678 C   0  0  0  0  0  0  0  0  0  0  0  0
   10.9097   11.8051   18.4804 C   0  0  0  0  0  0  0  0  0  0  0  0
   11.2280   12.9135   17.5669 C   0  0  0  0  0  0  0  0  0  0  0  0
   12.3782    5.4231   20.7777 C   0  0  0  0  0  0  0  0  0  0  0  0
    7.7365    4.6508   21.6987 C   0  0  0  0  0  0  0  0  0  0  0  0
   13.0186   11.0102   18.0020 C   0  0  0  0  0  0  0  0  0  0  0  0
    8.6628    5.7088   21.8871 N   0  0  0  0  0  0  0  0  0  0  0  0
    5.6516    3.5258   21.9140 C   0  0  0  0  0  0  0  0  0  0  0  0
   11.5863    9.6815   19.4539 C   0  0  0  0  0  0  0  0  0  0  0  0
   12.9648    4.1543   20.9205 C   0  0  0  0  0  0  0  0  0  0  0  0
    8.2089    3.6265   20.8929 C   0  0  0  0  0  0  0  0  0  0  0  0
    7.3827    2.5724   20.5432 C   0  0  0  0  0  0  0  0  0  0  0  0
   11.1529    7.2750   20.8025 C   0  0  0  0  0  0  0  0  0  0  0  0
   10.2573    8.3215   20.9827 C   0  0  0  0  0  0  0  0  0  0  0  0
   11.1606    5.9378   21.2366 N   0  0  0  0  0  0  0  0  0  0  0  0
    9.8932   11.6736   19.0677 O   0  0  0  0  0  0  0  0  0  0  0  0
    6.4470    4.5850   22.2321 C   0  0  0  0  0  0  0  0  0  0  0  0
    8.4619    6.9895   22.2968 C   0  0  0  0  0  0  0  0  0  0  0  0
   12.2747    7.5102   20.0420 C   0  0  0  0  0  0  0  0  0  0  0  0
   14.2544    6.2142   19.4191 C   0  0  0  0  0  0  0  0  0  0  0  0
   13.0695    6.3705   20.0375 N   0  0  0  0  0  0  0  0  0  0  0  0
    9.1913    8.0876   21.8361 N   0  0  0  0  0  0  0  0  0  0  0  0
   10.4739    9.4813   20.2889 C   0  0  0  0  0  0  0  0  0  0  0  0
    7.5551    7.1270   23.1200 O   0  0  0  0  0  0  0  0  0  0  0  0
  1 11  4  0
  1 21  4  0
  2  4  1  0
  2  8  1  0
  2 11  1  0
  3 10  4  0
  3 14  4  0
  4  5  1  0
  4 18  2  0
  6 12  1  0
  6 17  4  0
  6 23  4  0
  7  9  1  0
  7 13  4  0
  7 19  4  0
  9 20  1  0
 10 19  4  0
 11 25  4  0
 13 14  4  0
 15 16  4  0
 15 17  4  0
 15 21  4  0
 16 24  1  0
 16 25  4  0
 20 24  1  0
 20 26  2  0
 21 23  4  0
 22 23  1  0
M  END
$$$$

 Created by Python create_sdf_string function

 26 28  0  0  0  0  0  0  0  0999 V2000
   12.4616    8.6700   19.4180 N   0  0  0  0  0  0  0  0  0  0  0  0
   11.8329   10.8148   18.6769 N   0  0  0  0  0  0  0  0  0  0  0  0
    6.1021    2.5564   21.0678 C   0  0  0  0  0  0  0  0  0  0  0  0
   10.9097   11.8051   18.4804 C   0  0  0  0  0  0  0  0  0  0  0  0
   11.2280   12.9135   17.5669 C   0  0  0  0  0  0  0  0  0  0  0  0
   12.3782    5.4231   20.7777 C   0  0  0  0  0  0  0  0  0  0  0  0
    7.7365    4.6508   21.6987 C   0  0  0  0  0  0  0  0  0  0  0  0
   13.0186   11.0102   18.0020 C   0  0  0  0  0  0  0  0  0  0  0  0
    8.6628    5.7088   21.8871 N   0  0  0  0  0  0  0  0  0  0  0  0
    5.6516    3.5258   21.9140 C   0  0  0  0  0  0  0  0  0  0  0  0
   11.5863    9.6815   19.4539 C   0  0  0  0  0  0  0  0  0  0  0  0
   12.9648    4.1543   20.9205 C   0  0  0  0  0  0  0  0  0  0  0  0
    8.2089    3.6265   20.8929 C   0  0  0  0  0  0  0  0  0  0  0  0
    7.3827    2.5724   20.5432 C   0  0  0  0  0  0  0  0  0  0  0  0
   11.1529    7.2750   20.8025 C   0  0  0  0  0  0  0  0  0  0  0  0
   10.2573    8.3215   20.9827 C   0  0  0  0  0  0  0  0  0  0  0  0
   11.1606    5.9378   21.2366 N   0  0  0  0  0  0  0  0  0  0  0  0
    9.8932   11.6736   19.0677 O   0  0  0  0  0  0  0  0  0  0  0  0
    6.4470    4.5850   22.2321 C   0  0  0  0  0  0  0  0  0  0  0  0
    8.4619    6.9895   22.2968 C   0  0  0  0  0  0  0  0  0  0  0  0
   12.2747    7.5102   20.0420 C   0  0  0  0  0  0  0  0  0  0  0  0
   14.2544    6.2142   19.4191 C   0  0  0  0  0  0  0  0  0  0  0  0
   13.0695    6.3705   20.0375 N   0  0  0  0  0  0  0  0  0  0  0  0
    9.1913    8.0876   21.8361 N   0  0  0  0  0  0  0  0  0  0  0  0
   10.4739    9.4813   20.2889 C   0  0  0  0  0  0  0  0  0  0  0  0
    7.5551    7.1270   23.1200 O   0  0  0  0  0  0  0  0  0  0  0  0
  1 11  4  0
  1 21  4  0
  2  4  1  0
  2  8  1  0
  2 11  1  0
  3 10  4  0
  3 14  4  0
  4  5  1  0
  4 18  2  0
  6 12  1  0
  6 17  4  0
  6 23  4  0
  7  9  1  0
  7 13  4  0
  7 19  4  0
  9 20  1  0
 10 19  4  0
 11 25  4  0
 13 14  4  0
 15 16  4  0
 15 17  4  0
 15 21  4  0
 16 24  1  0
 16 25  4  0
 20 24  1  0
 20 26  2  0
 21 23  4  0
 22 23  1  0
M  END
$$$$

 Created by Python create_sdf_string function

 26 28  0  0  0  0  0  0  0  0999 V2000
   12.4616    8.6700   19.4180 N   0  0  0  0  0  0  0  0  0  0  0  0
   11.8329   10.8148   18.6769 N   0  0  0  0  0  0  0  0  0  0  0  0
    6.1021    2.5564   21.0678 C   0  0  0  0  0  0  0  0  0  0  0  0
   10.9097   11.8051   18.4804 C   0  0  0  0  0  0  0  0  0  0  0  0
   11.2280   12.9135   17.5669 C   0  0  0  0  0  0  0  0  0  0  0  0
   12.3782    5.4231   20.7777 C   0  0  0  0  0  0  0  0  0  0  0  0
    7.7365    4.6508   21.6987 C   0  0  0  0  0  0  0  0  0  0  0  0
   13.0186   11.0102   18.0020 C   0  0  0  0  0  0  0  0  0  0  0  0
    8.6628    5.7088   21.8871 N   0  0  0  0  0  0  0  0  0  0  0  0
    5.6516    3.5258   21.9140 C   0  0  0  0  0  0  0  0  0  0  0  0
   11.5863    9.6815   19.4539 C   0  0  0  0  0  0  0  0  0  0  0  0
   12.9648    4.1543   20.9205 C   0  0  0  0  0  0  0  0  0  0  0  0
    8.2089    3.6265   20.8929 C   0  0  0  0  0  0  0  0  0  0  0  0
    7.3827    2.5724   20.5432 C   0  0  0  0  0  0  0  0  0  0  0  0
   11.1529    7.2750   20.8025 C   0  0  0  0  0  0  0  0  0  0  0  0
   10.2573    8.3215   20.9827 C   0  0  0  0  0  0  0  0  0  0  0  0
   11.1606    5.9378   21.2366 N   0  0  0  0  0  0  0  0  0  0  0  0
    9.8932   11.6736   19.0677 O   0  0  0  0  0  0  0  0  0  0  0  0
    6.4470    4.5850   22.2321 C   0  0  0  0  0  0  0  0  0  0  0  0
    8.4619    6.9895   22.2968 C   0  0  0  0  0  0  0  0  0  0  0  0
   12.2747    7.5102   20.0420 C   0  0  0  0  0  0  0  0  0  0  0  0
   14.2544    6.2142   19.4191 C   0  0  0  0  0  0  0  0  0  0  0  0
   13.0695    6.3705   20.0375 N   0  0  0  0  0  0  0  0  0  0  0  0
    9.1913    8.0876   21.8361 N   0  0  0  0  0  0  0  0  0  0  0  0
   10.4739    9.4813   20.2889 C   0  0  0  0  0  0  0  0  0  0  0  0
    7.5551    7.1270   23.1200 O   0  0  0  0  0  0  0  0  0  0  0  0
  1 11  4  0
  1 21  4  0
  2  4  1  0
  2  8  1  0
  2 11  1  0
  3 10  4  0
  3 14  4  0
  4  5  1  0
  4 18  2  0
  6 12  1  0
  6 17  4  0
  6 23  4  0
  7  9  1  0
  7 13  4  0
  7 19  4  0
  9 20  1  0
 10 19  4  0
 11 25  4  0
 13 14  4  0
 15 16  4  0
 15 17  4  0
 15 21  4  0
 16 24  1  0
 16 25  4  0
 20 24  1  0
 20 26  2  0
 21 23  4  0
 22 23  1  0
M  END
$$$$

 Created by Python create_sdf_string function

 26 28  0  0  0  0  0  0  0  0999 V2000
   12.4616    8.6700   19.4180 N   0  0  0  0  0  0  0  0  0  0  0  0
   11.8329   10.8148   18.6769 N   0  0  0  0  0  0  0  0  0  0  0  0
    6.1021    2.5564   21.0678 C   0  0  0  0  0  0  0  0  0  0  0  0
   10.9097   11.8051   18.4804 C   0  0  0  0  0  0  0  0  0  0  0  0
   11.2280   12.9135   17.5669 C   0  0  0  0  0  0  0  0  0  0  0  0
   12.3782    5.4231   20.7777 C   0  0  0  0  0  0  0  0  0  0  0  0
    7.7365    4.6508   21.6987 C   0  0  0  0  0  0  0  0  0  0  0  0
   13.0186   11.0102   18.0020 C   0  0  0  0  0  0  0  0  0  0  0  0
    8.6628    5.7088   21.8871 N   0  0  0  0  0  0  0  0  0  0  0  0
    5.6516    3.5258   21.9140 C   0  0  0  0  0  0  0  0  0  0  0  0
   11.5863    9.6815   19.4539 C   0  0  0  0  0  0  0  0  0  0  0  0
   12.9648    4.1543   20.9205 C   0  0  0  0  0  0  0  0  0  0  0  0
    8.2089    3.6265   20.8929 C   0  0  0  0  0  0  0  0  0  0  0  0
    7.3827    2.5724   20.5432 C   0  0  0  0  0  0  0  0  0  0  0  0
   11.1529    7.2750   20.8025 C   0  0  0  0  0  0  0  0  0  0  0  0
   10.2573    8.3215   20.9827 C   0  0  0  0  0  0  0  0  0  0  0  0
   11.1606    5.9378   21.2366 N   0  0  0  0  0  0  0  0  0  0  0  0
    9.8932   11.6736   19.0677 O   0  0  0  0  0  0  0  0  0  0  0  0
    6.4470    4.5850   22.2321 C   0  0  0  0  0  0  0  0  0  0  0  0
    8.4619    6.9895   22.2968 C   0  0  0  0  0  0  0  0  0  0  0  0
   12.2747    7.5102   20.0420 C   0  0  0  0  0  0  0  0  0  0  0  0
   14.2544    6.2142   19.4191 C   0  0  0  0  0  0  0  0  0  0  0  0
   13.0695    6.3705   20.0375 N   0  0  0  0  0  0  0  0  0  0  0  0
    9.1913    8.0876   21.8361 N   0  0  0  0  0  0  0  0  0  0  0  0
   10.4739    9.4813   20.2889 C   0  0  0  0  0  0  0  0  0  0  0  0
    7.5551    7.1270   23.1200 O   0  0  0  0  0  0  0  0  0  0  0  0
  1 11  4  0
  1 21  4  0
  2  4  1  0
  2  8  1  0
  2 11  1  0
  3 10  4  0
  3 14  4  0
  4  5  1  0
  4 18  2  0
  6 12  1  0
  6 17  4  0
  6 23  4  0
  7  9  1  0
  7 13  4  0
  7 19  4  0
  9 20  1  0
 10 19  4  0
 11 25  4  0
 13 14  4  0
 15 16  4  0
 15 17  4  0
 15 21  4  0
 16 24  1  0
 16 25  4  0
 20 24  1  0
 20 26  2  0
 21 23  4  0
 22 23  1  0
M  END
$$$$

 Created by Python create_sdf_string function

 26 28  0  0  0  0  0  0  0  0999 V2000
   12.4616    8.6700   19.4180 N   0  0  0  0  0  0  0  0  0  0  0  0
   11.8329   10.8148   18.6769 N   0  0  0  0  0  0  0  0  0  0  0  0
    6.1021    2.5564   21.0678 C   0  0  0  0  0  0  0  0  0  0  0  0
   10.9097   11.8051   18.4804 C   0  0  0  0  0  0  0  0  0  0  0  0
   11.2280   12.9135   17.5669 C   0  0  0  0  0  0  0  0  0  0  0  0
   12.3782    5.4231   20.7777 C   0  0  0  0  0  0  0  0  0  0  0  0
    7.7365    4.6508   21.6987 C   0  0  0  0  0  0  0  0  0  0  0  0
   13.0186   11.0102   18.0020 C   0  0  0  0  0  0  0  0  0  0  0  0
    8.6628    5.7088   21.8871 N   0  0  0  0  0  0  0  0  0  0  0  0
    5.6516    3.5258   21.9140 C   0  0  0  0  0  0  0  0  0  0  0  0
   11.5863    9.6815   19.4539 C   0  0  0  0  0  0  0  0  0  0  0  0
   12.9648    4.1543   20.9205 C   0  0  0  0  0  0  0  0  0  0  0  0
    8.2089    3.6265   20.8929 C   0  0  0  0  0  0  0  0  0  0  0  0
    7.3827    2.5724   20.5432 C   0  0  0  0  0  0  0  0  0  0  0  0
   11.1529    7.2750   20.8025 C   0  0  0  0  0  0  0  0  0  0  0  0
   10.2573    8.3215   20.9827 C   0  0  0  0  0  0  0  0  0  0  0  0
   11.1606    5.9378   21.2366 N   0  0  0  0  0  0  0  0  0  0  0  0
    9.8932   11.6736   19.0677 O   0  0  0  0  0  0  0  0  0  0  0  0
    6.4470    4.5850   22.2321 C   0  0  0  0  0  0  0  0  0  0  0  0
    8.4619    6.9895   22.2968 C   0  0  0  0  0  0  0  0  0  0  0  0
   12.2747    7.5102   20.0420 C   0  0  0  0  0  0  0  0  0  0  0  0
   14.2544    6.2142   19.4191 C   0  0  0  0  0  0  0  0  0  0  0  0
   13.0695    6.3705   20.0375 N   0  0  0  0  0  0  0  0  0  0  0  0
    9.1913    8.0876   21.8361 N   0  0  0  0  0  0  0  0  0  0  0  0
   10.4739    9.4813   20.2889 C   0  0  0  0  0  0  0  0  0  0  0  0
    7.5551    7.1270   23.1200 O   0  0  0  0  0  0  0  0  0  0  0  0
  1 11  4  0
  1 21  4  0
  2  4  1  0
  2  8  1  0
  2 11  1  0
  3 10  4  0
  3 14  4  0
  4  5  1  0
  4 18  2  0
  6 12  1  0
  6 17  4  0
  6 23  4  0
  7  9  1  0
  7 13  4  0
  7 19  4  0
  9 20  1  0
 10 19  4  0
 11 25  4  0
 13 14  4  0
 15 16  4  0
 15 17  4  0
 15 21  4  0
 16 24  1  0
 16 25  4  0
 20 24  1  0
 20 26  2  0
 21 23  4  0
 22 23  1  0
M  END
$$$$

 Created by Python create_sdf_string function

 26 28  0  0  0  0  0  0  0  0999 V2000
   12.4616    8.6700   19.4180 N   0  0  0  0  0  0  0  0  0  0  0  0
   11.8329   10.8148   18.6769 N   0  0  0  0  0  0  0  0  0  0  0  0
    6.1021    2.5564   21.0678 C   0  0  0  0  0  0  0  0  0  0  0  0
   10.9097   11.8051   18.4804 C   0  0  0  0  0  0  0  0  0  0  0  0
   11.2280   12.9135   17.5669 C   0  0  0  0  0  0  0  0  0  0  0  0
   12.3782    5.4231   20.7777 C   0  0  0  0  0  0  0  0  0  0  0  0
    7.7365    4.6508   21.6987 C   0  0  0  0  0  0  0  0  0  0  0  0
   13.0186   11.0102   18.0020 C   0  0  0  0  0  0  0  0  0  0  0  0
    8.6628    5.7088   21.8871 N   0  0  0  0  0  0  0  0  0  0  0  0
    5.6516    3.5258   21.9140 C   0  0  0  0  0  0  0  0  0  0  0  0
   11.5863    9.6815   19.4539 C   0  0  0  0  0  0  0  0  0  0  0  0
   12.9648    4.1543   20.9205 C   0  0  0  0  0  0  0  0  0  0  0  0
    8.2089    3.6265   20.8929 C   0  0  0  0  0  0  0  0  0  0  0  0
    7.3827    2.5724   20.5432 C   0  0  0  0  0  0  0  0  0  0  0  0
   11.1529    7.2750   20.8025 C   0  0  0  0  0  0  0  0  0  0  0  0
   10.2573    8.3215   20.9827 C   0  0  0  0  0  0  0  0  0  0  0  0
   11.1606    5.9378   21.2366 N   0  0  0  0  0  0  0  0  0  0  0  0
    9.8932   11.6736   19.0677 O   0  0  0  0  0  0  0  0  0  0  0  0
    6.4470    4.5850   22.2321 C   0  0  0  0  0  0  0  0  0  0  0  0
    8.4619    6.9895   22.2968 C   0  0  0  0  0  0  0  0  0  0  0  0
   12.2747    7.5102   20.0420 C   0  0  0  0  0  0  0  0  0  0  0  0
   14.2544    6.2142   19.4191 C   0  0  0  0  0  0  0  0  0  0  0  0
   13.0695    6.3705   20.0375 N   0  0  0  0  0  0  0  0  0  0  0  0
    9.1913    8.0876   21.8361 N   0  0  0  0  0  0  0  0  0  0  0  0
   10.4739    9.4813   20.2889 C   0  0  0  0  0  0  0  0  0  0  0  0
    7.5551    7.1270   23.1200 O   0  0  0  0  0  0  0  0  0  0  0  0
  1 11  4  0
  1 21  4  0
  2  4  1  0
  2  8  1  0
  2 11  1  0
  3 10  4  0
  3 14  4  0
  4  5  1  0
  4 18  2  0
  6 12  1  0
  6 17  4  0
  6 23  4  0
  7  9  1  0
  7 13  4  0
  7 19  4  0
  9 20  1  0
 10 19  4  0
 11 25  4  0
 13 14  4  0
 15 16  4  0
 15 17  4  0
 15 21  4  0
 16 24  1  0
 16 25  4  0
 20 24  1  0
 20 26  2  0
 21 23  4  0
 22 23  1  0
M  END
$$$$

 Created by Python create_sdf_string function

 26 28  0  0  0  0  0  0  0  0999 V2000
   12.4616    8.6700   19.4180 N   0  0  0  0  0  0  0  0  0  0  0  0
   11.8329   10.8148   18.6769 N   0  0  0  0  0  0  0  0  0  0  0  0
    6.1021    2.5564   21.0678 C   0  0  0  0  0  0  0  0  0  0  0  0
   10.9097   11.8051   18.4804 C   0  0  0  0  0  0  0  0  0  0  0  0
   11.2280   12.9135   17.5669 C   0  0  0  0  0  0  0  0  0  0  0  0
   12.3782    5.4231   20.7777 C   0  0  0  0  0  0  0  0  0  0  0  0
    7.7365    4.6508   21.6987 C   0  0  0  0  0  0  0  0  0  0  0  0
   13.0186   11.0102   18.0020 C   0  0  0  0  0  0  0  0  0  0  0  0
    8.6628    5.7088   21.8871 N   0  0  0  0  0  0  0  0  0  0  0  0
    5.6516    3.5258   21.9140 C   0  0  0  0  0  0  0  0  0  0  0  0
   11.5863    9.6815   19.4539 C   0  0  0  0  0  0  0  0  0  0  0  0
   12.9648    4.1543   20.9205 C   0  0  0  0  0  0  0  0  0  0  0  0
    8.2089    3.6265   20.8929 C   0  0  0  0  0  0  0  0  0  0  0  0
    7.3827    2.5724   20.5432 C   0  0  0  0  0  0  0  0  0  0  0  0
   11.1529    7.2750   20.8025 C   0  0  0  0  0  0  0  0  0  0  0  0
   10.2573    8.3215   20.9827 C   0  0  0  0  0  0  0  0  0  0  0  0
   11.1606    5.9378   21.2366 N   0  0  0  0  0  0  0  0  0  0  0  0
    9.8932   11.6736   19.0677 O   0  0  0  0  0  0  0  0  0  0  0  0
    6.4470    4.5850   22.2321 C   0  0  0  0  0  0  0  0  0  0  0  0
    8.4619    6.9895   22.2968 C   0  0  0  0  0  0  0  0  0  0  0  0
   12.2747    7.5102   20.0420 C   0  0  0  0  0  0  0  0  0  0  0  0
   14.2544    6.2142   19.4191 C   0  0  0  0  0  0  0  0  0  0  0  0
   13.0695    6.3705   20.0375 N   0  0  0  0  0  0  0  0  0  0  0  0
    9.1913    8.0876   21.8361 N   0  0  0  0  0  0  0  0  0  0  0  0
   10.4739    9.4813   20.2889 C   0  0  0  0  0  0  0  0  0  0  0  0
    7.5551    7.1270   23.1200 O   0  0  0  0  0  0  0  0  0  0  0  0
  1 11  4  0
  1 21  4  0
  2  4  1  0
  2  8  1  0
  2 11  1  0
  3 10  4  0
  3 14  4  0
  4  5  1  0
  4 18  2  0
  6 12  1  0
  6 17  4  0
  6 23  4  0
  7  9  1  0
  7 13  4  0
  7 19  4  0
  9 20  1  0
 10 19  4  0
 11 25  4  0
 13 14  4  0
 15 16  4  0
 15 17  4  0
 15 21  4  0
 16 24  1  0
 16 25  4  0
 20 24  1  0
 20 26  2  0
 21 23  4  0
 22 23  1  0
M  END
$$$$

 Created by Python create_sdf_string function

 26 28  0  0  0  0  0  0  0  0999 V2000
   12.4616    8.6700   19.4180 N   0  0  0  0  0  0  0  0  0  0  0  0
   11.8329   10.8148   18.6769 N   0  0  0  0  0  0  0  0  0  0  0  0
    6.1021    2.5564   21.0678 C   0  0  0  0  0  0  0  0  0  0  0  0
   10.9097   11.8051   18.4804 C   0  0  0  0  0  0  0  0  0  0  0  0
   11.2280   12.9135   17.5669 C   0  0  0  0  0  0  0  0  0  0  0  0
   12.3782    5.4231   20.7777 C   0  0  0  0  0  0  0  0  0  0  0  0
    7.7365    4.6508   21.6987 C   0  0  0  0  0  0  0  0  0  0  0  0
   13.0186   11.0102   18.0020 C   0  0  0  0  0  0  0  0  0  0  0  0
    8.6628    5.7088   21.8871 N   0  0  0  0  0  0  0  0  0  0  0  0
    5.6516    3.5258   21.9140 C   0  0  0  0  0  0  0  0  0  0  0  0
   11.5863    9.6815   19.4539 C   0  0  0  0  0  0  0  0  0  0  0  0
   12.9648    4.1543   20.9205 C   0  0  0  0  0  0  0  0  0  0  0  0
    8.2089    3.6265   20.8929 C   0  0  0  0  0  0  0  0  0  0  0  0
    7.3827    2.5724   20.5432 C   0  0  0  0  0  0  0  0  0  0  0  0
   11.1529    7.2750   20.8025 C   0  0  0  0  0  0  0  0  0  0  0  0
   10.2573    8.3215   20.9827 C   0  0  0  0  0  0  0  0  0  0  0  0
   11.1606    5.9378   21.2366 N   0  0  0  0  0  0  0  0  0  0  0  0
    9.8932   11.6736   19.0677 O   0  0  0  0  0  0  0  0  0  0  0  0
    6.4470    4.5850   22.2321 C   0  0  0  0  0  0  0  0  0  0  0  0
    8.4619    6.9895   22.2968 C   0  0  0  0  0  0  0  0  0  0  0  0
   12.2747    7.5102   20.0420 C   0  0  0  0  0  0  0  0  0  0  0  0
   14.2544    6.2142   19.4191 C   0  0  0  0  0  0  0  0  0  0  0  0
   13.0695    6.3705   20.0375 N   0  0  0  0  0  0  0  0  0  0  0  0
    9.1913    8.0876   21.8361 N   0  0  0  0  0  0  0  0  0  0  0  0
   10.4739    9.4813   20.2889 C   0  0  0  0  0  0  0  0  0  0  0  0
    7.5551    7.1270   23.1200 O   0  0  0  0  0  0  0  0  0  0  0  0
  1 11  4  0
  1 21  4  0
  2  4  1  0
  2  8  1  0
  2 11  1  0
  3 10  4  0
  3 14  4  0
  4  5  1  0
  4 18  2  0
  6 12  1  0
  6 17  4  0
  6 23  4  0
  7  9  1  0
  7 13  4  0
  7 19  4  0
  9 20  1  0
 10 19  4  0
 11 25  4  0
 13 14  4  0
 15 16  4  0
 15 17  4  0
 15 21  4  0
 16 24  1  0
 16 25  4  0
 20 24  1  0
 20 26  2  0
 21 23  4  0
 22 23  1  0
M  END
$$$$

 Created by Python create_sdf_string function

 26 28  0  0  0  0  0  0  0  0999 V2000
   12.4616    8.6700   19.4180 N   0  0  0  0  0  0  0  0  0  0  0  0
   11.8329   10.8148   18.6769 N   0  0  0  0  0  0  0  0  0  0  0  0
    6.1021    2.5564   21.0678 C   0  0  0  0  0  0  0  0  0  0  0  0
   10.9097   11.8051   18.4804 C   0  0  0  0  0  0  0  0  0  0  0  0
   11.2280   12.9135   17.5669 C   0  0  0  0  0  0  0  0  0  0  0  0
   12.3782    5.4231   20.7777 C   0  0  0  0  0  0  0  0  0  0  0  0
    7.7365    4.6508   21.6987 C   0  0  0  0  0  0  0  0  0  0  0  0
   13.0186   11.0102   18.0020 C   0  0  0  0  0  0  0  0  0  0  0  0
    8.6628    5.7088   21.8871 N   0  0  0  0  0  0  0  0  0  0  0  0
    5.6516    3.5258   21.9140 C   0  0  0  0  0  0  0  0  0  0  0  0
   11.5863    9.6815   19.4539 C   0  0  0  0  0  0  0  0  0  0  0  0
   12.9648    4.1543   20.9205 C   0  0  0  0  0  0  0  0  0  0  0  0
    8.2089    3.6265   20.8929 C   0  0  0  0  0  0  0  0  0  0  0  0
    7.3827    2.5724   20.5432 C   0  0  0  0  0  0  0  0  0  0  0  0
   11.1529    7.2750   20.8025 C   0  0  0  0  0  0  0  0  0  0  0  0
   10.2573    8.3215   20.9827 C   0  0  0  0  0  0  0  0  0  0  0  0
   11.1606    5.9378   21.2366 N   0  0  0  0  0  0  0  0  0  0  0  0
    9.8932   11.6736   19.0677 O   0  0  0  0  0  0  0  0  0  0  0  0
    6.4470    4.5850   22.2321 C   0  0  0  0  0  0  0  0  0  0  0  0
    8.4619    6.9895   22.2968 C   0  0  0  0  0  0  0  0  0  0  0  0
   12.2747    7.5102   20.0420 C   0  0  0  0  0  0  0  0  0  0  0  0
   14.2544    6.2142   19.4191 C   0  0  0  0  0  0  0  0  0  0  0  0
   13.0695    6.3705   20.0375 N   0  0  0  0  0  0  0  0  0  0  0  0
    9.1913    8.0876   21.8361 N   0  0  0  0  0  0  0  0  0  0  0  0
   10.4739    9.4813   20.2889 C   0  0  0  0  0  0  0  0  0  0  0  0
    7.5551    7.1270   23.1200 O   0  0  0  0  0  0  0  0  0  0  0  0
  1 11  4  0
  1 21  4  0
  2  4  1  0
  2  8  1  0
  2 11  1  0
  3 10  4  0
  3 14  4  0
  4  5  1  0
  4 18  2  0
  6 12  1  0
  6 17  4  0
  6 23  4  0
  7  9  1  0
  7 13  4  0
  7 19  4  0
  9 20  1  0
 10 19  4  0
 11 25  4  0
 13 14  4  0
 15 16  4  0
 15 17  4  0
 15 21  4  0
 16 24  1  0
 16 25  4  0
 20 24  1  0
 20 26  2  0
 21 23  4  0
 22 23  1  0
M  END
$$$$

 Created by Python create_sdf_string function

 26 28  0  0  0  0  0  0  0  0999 V2000
   12.4616    8.6700   19.4180 N   0  0  0  0  0  0  0  0  0  0  0  0
   11.8329   10.8148   18.6769 N   0  0  0  0  0  0  0  0  0  0  0  0
    6.1021    2.5564   21.0678 C   0  0  0  0  0  0  0  0  0  0  0  0
   10.9097   11.8051   18.4804 C   0  0  0  0  0  0  0  0  0  0  0  0
   11.2280   12.9135   17.5669 C   0  0  0  0  0  0  0  0  0  0  0  0
   12.3782    5.4231   20.7777 C   0  0  0  0  0  0  0  0  0  0  0  0
    7.7365    4.6508   21.6987 C   0  0  0  0  0  0  0  0  0  0  0  0
   13.0186   11.0102   18.0020 C   0  0  0  0  0  0  0  0  0  0  0  0
    8.6628    5.7088   21.8871 N   0  0  0  0  0  0  0  0  0  0  0  0
    5.6516    3.5258   21.9140 C   0  0  0  0  0  0  0  0  0  0  0  0
   11.5863    9.6815   19.4539 C   0  0  0  0  0  0  0  0  0  0  0  0
   12.9648    4.1543   20.9205 C   0  0  0  0  0  0  0  0  0  0  0  0
    8.2089    3.6265   20.8929 C   0  0  0  0  0  0  0  0  0  0  0  0
    7.3827    2.5724   20.5432 C   0  0  0  0  0  0  0  0  0  0  0  0
   11.1529    7.2750   20.8025 C   0  0  0  0  0  0  0  0  0  0  0  0
   10.2573    8.3215   20.9827 C   0  0  0  0  0  0  0  0  0  0  0  0
   11.1606    5.9378   21.2366 N   0  0  0  0  0  0  0  0  0  0  0  0
    9.8932   11.6736   19.0677 O   0  0  0  0  0  0  0  0  0  0  0  0
    6.4470    4.5850   22.2321 C   0  0  0  0  0  0  0  0  0  0  0  0
    8.4619    6.9895   22.2968 C   0  0  0  0  0  0  0  0  0  0  0  0
   12.2747    7.5102   20.0420 C   0  0  0  0  0  0  0  0  0  0  0  0
   14.2544    6.2142   19.4191 C   0  0  0  0  0  0  0  0  0  0  0  0
   13.0695    6.3705   20.0375 N   0  0  0  0  0  0  0  0  0  0  0  0
    9.1913    8.0876   21.8361 N   0  0  0  0  0  0  0  0  0  0  0  0
   10.4739    9.4813   20.2889 C   0  0  0  0  0  0  0  0  0  0  0  0
    7.5551    7.1270   23.1200 O   0  0  0  0  0  0  0  0  0  0  0  0
  1 11  4  0
  1 21  4  0
  2  4  1  0
  2  8  1  0
  2 11  1  0
  3 10  4  0
  3 14  4  0
  4  5  1  0
  4 18  2  0
  6 12  1  0
  6 17  4  0
  6 23  4  0
  7  9  1  0
  7 13  4  0
  7 19  4  0
  9 20  1  0
 10 19  4  0
 11 25  4  0
 13 14  4  0
 15 16  4  0
 15 17  4  0
 15 21  4  0
 16 24  1  0
 16 25  4  0
 20 24  1  0
 20 26  2  0
 21 23  4  0
 22 23  1  0
M  END
$$$$

 Created by Python create_sdf_string function

 26 28  0  0  0  0  0  0  0  0999 V2000
   12.4616    8.6700   19.4180 N   0  0  0  0  0  0  0  0  0  0  0  0
   11.8329   10.8148   18.6769 N   0  0  0  0  0  0  0  0  0  0  0  0
    6.1021    2.5564   21.0678 C   0  0  0  0  0  0  0  0  0  0  0  0
   10.9097   11.8051   18.4804 C   0  0  0  0  0  0  0  0  0  0  0  0
   11.2280   12.9135   17.5669 C   0  0  0  0  0  0  0  0  0  0  0  0
   12.3782    5.4231   20.7777 C   0  0  0  0  0  0  0  0  0  0  0  0
    7.7365    4.6508   21.6987 C   0  0  0  0  0  0  0  0  0  0  0  0
   13.0186   11.0102   18.0020 C   0  0  0  0  0  0  0  0  0  0  0  0
    8.6628    5.7088   21.8871 N   0  0  0  0  0  0  0  0  0  0  0  0
    5.6516    3.5258   21.9140 C   0  0  0  0  0  0  0  0  0  0  0  0
   11.5863    9.6815   19.4539 C   0  0  0  0  0  0  0  0  0  0  0  0
   12.9648    4.1543   20.9205 C   0  0  0  0  0  0  0  0  0  0  0  0
    8.2089    3.6265   20.8929 C   0  0  0  0  0  0  0  0  0  0  0  0
    7.3827    2.5724   20.5432 C   0  0  0  0  0  0  0  0  0  0  0  0
   11.1529    7.2750   20.8025 C   0  0  0  0  0  0  0  0  0  0  0  0
   10.2573    8.3215   20.9827 C   0  0  0  0  0  0  0  0  0  0  0  0
   11.1606    5.9378   21.2366 N   0  0  0  0  0  0  0  0  0  0  0  0
    9.8932   11.6736   19.0677 O   0  0  0  0  0  0  0  0  0  0  0  0
    6.4470    4.5850   22.2321 C   0  0  0  0  0  0  0  0  0  0  0  0
    8.4619    6.9895   22.2968 C   0  0  0  0  0  0  0  0  0  0  0  0
   12.2747    7.5102   20.0420 C   0  0  0  0  0  0  0  0  0  0  0  0
   14.2544    6.2142   19.4191 C   0  0  0  0  0  0  0  0  0  0  0  0
   13.0695    6.3705   20.0375 N   0  0  0  0  0  0  0  0  0  0  0  0
    9.1913    8.0876   21.8361 N   0  0  0  0  0  0  0  0  0  0  0  0
   10.4739    9.4813   20.2889 C   0  0  0  0  0  0  0  0  0  0  0  0
    7.5551    7.1270   23.1200 O   0  0  0  0  0  0  0  0  0  0  0  0
  1 11  4  0
  1 21  4  0
  2  4  1  0
  2  8  1  0
  2 11  1  0
  3 10  4  0
  3 14  4  0
  4  5  1  0
  4 18  2  0
  6 12  1  0
  6 17  4  0
  6 23  4  0
  7  9  1  0
  7 13  4  0
  7 19  4  0
  9 20  1  0
 10 19  4  0
 11 25  4  0
 13 14  4  0
 15 16  4  0
 15 17  4  0
 15 21  4  0
 16 24  1  0
 16 25  4  0
 20 24  1  0
 20 26  2  0
 21 23  4  0
 22 23  1  0
M  END
$$$$

 Created by Python create_sdf_string function

 26 28  0  0  0  0  0  0  0  0999 V2000
   12.4616    8.6700   19.4180 N   0  0  0  0  0  0  0  0  0  0  0  0
   11.8329   10.8148   18.6769 N   0  0  0  0  0  0  0  0  0  0  0  0
    6.1021    2.5564   21.0678 C   0  0  0  0  0  0  0  0  0  0  0  0
   10.9097   11.8051   18.4804 C   0  0  0  0  0  0  0  0  0  0  0  0
   11.2280   12.9135   17.5669 C   0  0  0  0  0  0  0  0  0  0  0  0
   12.3782    5.4231   20.7777 C   0  0  0  0  0  0  0  0  0  0  0  0
    7.7365    4.6508   21.6987 C   0  0  0  0  0  0  0  0  0  0  0  0
   13.0186   11.0102   18.0020 C   0  0  0  0  0  0  0  0  0  0  0  0
    8.6628    5.7088   21.8871 N   0  0  0  0  0  0  0  0  0  0  0  0
    5.6516    3.5258   21.9140 C   0  0  0  0  0  0  0  0  0  0  0  0
   11.5863    9.6815   19.4539 C   0  0  0  0  0  0  0  0  0  0  0  0
   12.9648    4.1543   20.9205 C   0  0  0  0  0  0  0  0  0  0  0  0
    8.2089    3.6265   20.8929 C   0  0  0  0  0  0  0  0  0  0  0  0
    7.3827    2.5724   20.5432 C   0  0  0  0  0  0  0  0  0  0  0  0
   11.1529    7.2750   20.8025 C   0  0  0  0  0  0  0  0  0  0  0  0
   10.2573    8.3215   20.9827 C   0  0  0  0  0  0  0  0  0  0  0  0
   11.1606    5.9378   21.2366 N   0  0  0  0  0  0  0  0  0  0  0  0
    9.8932   11.6736   19.0677 O   0  0  0  0  0  0  0  0  0  0  0  0
    6.4470    4.5850   22.2321 C   0  0  0  0  0  0  0  0  0  0  0  0
    8.4619    6.9895   22.2968 C   0  0  0  0  0  0  0  0  0  0  0  0
   12.2747    7.5102   20.0420 C   0  0  0  0  0  0  0  0  0  0  0  0
   14.2544    6.2142   19.4191 C   0  0  0  0  0  0  0  0  0  0  0  0
   13.0695    6.3705   20.0375 N   0  0  0  0  0  0  0  0  0  0  0  0
    9.1913    8.0876   21.8361 N   0  0  0  0  0  0  0  0  0  0  0  0
   10.4739    9.4813   20.2889 C   0  0  0  0  0  0  0  0  0  0  0  0
    7.5551    7.1270   23.1200 O   0  0  0  0  0  0  0  0  0  0  0  0
  1 11  4  0
  1 21  4  0
  2  4  1  0
  2  8  1  0
  2 11  1  0
  3 10  4  0
  3 14  4  0
  4  5  1  0
  4 18  2  0
  6 12  1  0
  6 17  4  0
  6 23  4  0
  7  9  1  0
  7 13  4  0
  7 19  4  0
  9 20  1  0
 10 19  4  0
 11 25  4  0
 13 14  4  0
 15 16  4  0
 15 17  4  0
 15 21  4  0
 16 24  1  0
 16 25  4  0
 20 24  1  0
 20 26  2  0
 21 23  4  0
 22 23  1  0
M  END
$$$$

 Created by Python create_sdf_string function

 26 28  0  0  0  0  0  0  0  0999 V2000
   12.4616    8.6700   19.4180 N   0  0  0  0  0  0  0  0  0  0  0  0
   11.8329   10.8148   18.6769 N   0  0  0  0  0  0  0  0  0  0  0  0
    6.1021    2.5564   21.0678 C   0  0  0  0  0  0  0  0  0  0  0  0
   10.9097   11.8051   18.4804 C   0  0  0  0  0  0  0  0  0  0  0  0
   11.2280   12.9135   17.5669 C   0  0  0  0  0  0  0  0  0  0  0  0
   12.3782    5.4231   20.7777 C   0  0  0  0  0  0  0  0  0  0  0  0
    7.7365    4.6508   21.6987 C   0  0  0  0  0  0  0  0  0  0  0  0
   13.0186   11.0102   18.0020 C   0  0  0  0  0  0  0  0  0  0  0  0
    8.6628    5.7088   21.8871 N   0  0  0  0  0  0  0  0  0  0  0  0
    5.6516    3.5258   21.9140 C   0  0  0  0  0  0  0  0  0  0  0  0
   11.5863    9.6815   19.4539 C   0  0  0  0  0  0  0  0  0  0  0  0
   12.9648    4.1543   20.9205 C   0  0  0  0  0  0  0  0  0  0  0  0
    8.2089    3.6265   20.8929 C   0  0  0  0  0  0  0  0  0  0  0  0
    7.3827    2.5724   20.5432 C   0  0  0  0  0  0  0  0  0  0  0  0
   11.1529    7.2750   20.8025 C   0  0  0  0  0  0  0  0  0  0  0  0
   10.2573    8.3215   20.9827 C   0  0  0  0  0  0  0  0  0  0  0  0
   11.1606    5.9378   21.2366 N   0  0  0  0  0  0  0  0  0  0  0  0
    9.8932   11.6736   19.0677 O   0  0  0  0  0  0  0  0  0  0  0  0
    6.4470    4.5850   22.2321 C   0  0  0  0  0  0  0  0  0  0  0  0
    8.4619    6.9895   22.2968 C   0  0  0  0  0  0  0  0  0  0  0  0
   12.2747    7.5102   20.0420 C   0  0  0  0  0  0  0  0  0  0  0  0
   14.2544    6.2142   19.4191 C   0  0  0  0  0  0  0  0  0  0  0  0
   13.0695    6.3705   20.0375 N   0  0  0  0  0  0  0  0  0  0  0  0
    9.1913    8.0876   21.8361 N   0  0  0  0  0  0  0  0  0  0  0  0
   10.4739    9.4813   20.2889 C   0  0  0  0  0  0  0  0  0  0  0  0
    7.5551    7.1270   23.1200 O   0  0  0  0  0  0  0  0  0  0  0  0
  1 11  4  0
  1 21  4  0
  2  4  1  0
  2  8  1  0
  2 11  1  0
  3 10  4  0
  3 14  4  0
  4  5  1  0
  4 18  2  0
  6 12  1  0
  6 17  4  0
  6 23  4  0
  7  9  1  0
  7 13  4  0
  7 19  4  0
  9 20  1  0
 10 19  4  0
 11 25  4  0
 13 14  4  0
 15 16  4  0
 15 17  4  0
 15 21  4  0
 16 24  1  0
 16 25  4  0
 20 24  1  0
 20 26  2  0
 21 23  4  0
 22 23  1  0
M  END
$$$$

 Created by Python create_sdf_string function

 26 28  0  0  0  0  0  0  0  0999 V2000
   12.4616    8.6700   19.4180 N   0  0  0  0  0  0  0  0  0  0  0  0
   11.8329   10.8148   18.6769 N   0  0  0  0  0  0  0  0  0  0  0  0
    6.1021    2.5564   21.0678 C   0  0  0  0  0  0  0  0  0  0  0  0
   10.9097   11.8051   18.4804 C   0  0  0  0  0  0  0  0  0  0  0  0
   11.2280   12.9135   17.5669 C   0  0  0  0  0  0  0  0  0  0  0  0
   12.3782    5.4231   20.7777 C   0  0  0  0  0  0  0  0  0  0  0  0
    7.7365    4.6508   21.6987 C   0  0  0  0  0  0  0  0  0  0  0  0
   13.0186   11.0102   18.0020 C   0  0  0  0  0  0  0  0  0  0  0  0
    8.6628    5.7088   21.8871 N   0  0  0  0  0  0  0  0  0  0  0  0
    5.6516    3.5258   21.9140 C   0  0  0  0  0  0  0  0  0  0  0  0
   11.5863    9.6815   19.4539 C   0  0  0  0  0  0  0  0  0  0  0  0
   12.9648    4.1543   20.9205 C   0  0  0  0  0  0  0  0  0  0  0  0
    8.2089    3.6265   20.8929 C   0  0  0  0  0  0  0  0  0  0  0  0
    7.3827    2.5724   20.5432 C   0  0  0  0  0  0  0  0  0  0  0  0
   11.1529    7.2750   20.8025 C   0  0  0  0  0  0  0  0  0  0  0  0
   10.2573    8.3215   20.9827 C   0  0  0  0  0  0  0  0  0  0  0  0
   11.1606    5.9378   21.2366 N   0  0  0  0  0  0  0  0  0  0  0  0
    9.8932   11.6736   19.0677 O   0  0  0  0  0  0  0  0  0  0  0  0
    6.4470    4.5850   22.2321 C   0  0  0  0  0  0  0  0  0  0  0  0
    8.4619    6.9895   22.2968 C   0  0  0  0  0  0  0  0  0  0  0  0
   12.2747    7.5102   20.0420 C   0  0  0  0  0  0  0  0  0  0  0  0
   14.2544    6.2142   19.4191 C   0  0  0  0  0  0  0  0  0  0  0  0
   13.0695    6.3705   20.0375 N   0  0  0  0  0  0  0  0  0  0  0  0
    9.1913    8.0876   21.8361 N   0  0  0  0  0  0  0  0  0  0  0  0
   10.4739    9.4813   20.2889 C   0  0  0  0  0  0  0  0  0  0  0  0
    7.5551    7.1270   23.1200 O   0  0  0  0  0  0  0  0  0  0  0  0
  1 11  4  0
  1 21  4  0
  2  4  1  0
  2  8  1  0
  2 11  1  0
  3 10  4  0
  3 14  4  0
  4  5  1  0
  4 18  2  0
  6 12  1  0
  6 17  4  0
  6 23  4  0
  7  9  1  0
  7 13  4  0
  7 19  4  0
  9 20  1  0
 10 19  4  0
 11 25  4  0
 13 14  4  0
 15 16  4  0
 15 17  4  0
 15 21  4  0
 16 24  1  0
 16 25  4  0
 20 24  1  0
 20 26  2  0
 21 23  4  0
 22 23  1  0
M  END
$$$$

 Created by Python create_sdf_string function

 26 28  0  0  0  0  0  0  0  0999 V2000
   12.4616    8.6700   19.4180 N   0  0  0  0  0  0  0  0  0  0  0  0
   11.8329   10.8148   18.6769 N   0  0  0  0  0  0  0  0  0  0  0  0
    6.1021    2.5564   21.0678 C   0  0  0  0  0  0  0  0  0  0  0  0
   10.9097   11.8051   18.4804 C   0  0  0  0  0  0  0  0  0  0  0  0
   11.2280   12.9135   17.5669 C   0  0  0  0  0  0  0  0  0  0  0  0
   12.3782    5.4231   20.7777 C   0  0  0  0  0  0  0  0  0  0  0  0
    7.7365    4.6508   21.6987 C   0  0  0  0  0  0  0  0  0  0  0  0
   13.0186   11.0102   18.0020 C   0  0  0  0  0  0  0  0  0  0  0  0
    8.6628    5.7088   21.8871 N   0  0  0  0  0  0  0  0  0  0  0  0
    5.6516    3.5258   21.9140 C   0  0  0  0  0  0  0  0  0  0  0  0
   11.5863    9.6815   19.4539 C   0  0  0  0  0  0  0  0  0  0  0  0
   12.9648    4.1543   20.9205 C   0  0  0  0  0  0  0  0  0  0  0  0
    8.2089    3.6265   20.8929 C   0  0  0  0  0  0  0  0  0  0  0  0
    7.3827    2.5724   20.5432 C   0  0  0  0  0  0  0  0  0  0  0  0
   11.1529    7.2750   20.8025 C   0  0  0  0  0  0  0  0  0  0  0  0
   10.2573    8.3215   20.9827 C   0  0  0  0  0  0  0  0  0  0  0  0
   11.1606    5.9378   21.2366 N   0  0  0  0  0  0  0  0  0  0  0  0
    9.8932   11.6736   19.0677 O   0  0  0  0  0  0  0  0  0  0  0  0
    6.4470    4.5850   22.2321 C   0  0  0  0  0  0  0  0  0  0  0  0
    8.4619    6.9895   22.2968 C   0  0  0  0  0  0  0  0  0  0  0  0
   12.2747    7.5102   20.0420 C   0  0  0  0  0  0  0  0  0  0  0  0
   14.2544    6.2142   19.4191 C   0  0  0  0  0  0  0  0  0  0  0  0
   13.0695    6.3705   20.0375 N   0  0  0  0  0  0  0  0  0  0  0  0
    9.1913    8.0876   21.8361 N   0  0  0  0  0  0  0  0  0  0  0  0
   10.4739    9.4813   20.2889 C   0  0  0  0  0  0  0  0  0  0  0  0
    7.5551    7.1270   23.1200 O   0  0  0  0  0  0  0  0  0  0  0  0
  1 11  4  0
  1 21  4  0
  2  4  1  0
  2  8  1  0
  2 11  1  0
  3 10  4  0
  3 14  4  0
  4  5  1  0
  4 18  2  0
  6 12  1  0
  6 17  4  0
  6 23  4  0
  7  9  1  0
  7 13  4  0
  7 19  4  0
  9 20  1  0
 10 19  4  0
 11 25  4  0
 13 14  4  0
 15 16  4  0
 15 17  4  0
 15 21  4  0
 16 24  1  0
 16 25  4  0
 20 24  1  0
 20 26  2  0
 21 23  4  0
 22 23  1  0
M  END
$$$$

 Created by Python create_sdf_string function

 26 28  0  0  0  0  0  0  0  0999 V2000
   12.4616    8.6700   19.4180 N   0  0  0  0  0  0  0  0  0  0  0  0
   11.8329   10.8148   18.6769 N   0  0  0  0  0  0  0  0  0  0  0  0
    6.1021    2.5564   21.0678 C   0  0  0  0  0  0  0  0  0  0  0  0
   10.9097   11.8051   18.4804 C   0  0  0  0  0  0  0  0  0  0  0  0
   11.2280   12.9135   17.5669 C   0  0  0  0  0  0  0  0  0  0  0  0
   12.3782    5.4231   20.7777 C   0  0  0  0  0  0  0  0  0  0  0  0
    7.7365    4.6508   21.6987 C   0  0  0  0  0  0  0  0  0  0  0  0
   13.0186   11.0102   18.0020 C   0  0  0  0  0  0  0  0  0  0  0  0
    8.6628    5.7088   21.8871 N   0  0  0  0  0  0  0  0  0  0  0  0
    5.6516    3.5258   21.9140 C   0  0  0  0  0  0  0  0  0  0  0  0
   11.5863    9.6815   19.4539 C   0  0  0  0  0  0  0  0  0  0  0  0
   12.9648    4.1543   20.9205 C   0  0  0  0  0  0  0  0  0  0  0  0
    8.2089    3.6265   20.8929 C   0  0  0  0  0  0  0  0  0  0  0  0
    7.3827    2.5724   20.5432 C   0  0  0  0  0  0  0  0  0  0  0  0
   11.1529    7.2750   20.8025 C   0  0  0  0  0  0  0  0  0  0  0  0
   10.2573    8.3215   20.9827 C   0  0  0  0  0  0  0  0  0  0  0  0
   11.1606    5.9378   21.2366 N   0  0  0  0  0  0  0  0  0  0  0  0
    9.8932   11.6736   19.0677 O   0  0  0  0  0  0  0  0  0  0  0  0
    6.4470    4.5850   22.2321 C   0  0  0  0  0  0  0  0  0  0  0  0
    8.4619    6.9895   22.2968 C   0  0  0  0  0  0  0  0  0  0  0  0
   12.2747    7.5102   20.0420 C   0  0  0  0  0  0  0  0  0  0  0  0
   14.2544    6.2142   19.4191 C   0  0  0  0  0  0  0  0  0  0  0  0
   13.0695    6.3705   20.0375 N   0  0  0  0  0  0  0  0  0  0  0  0
    9.1913    8.0876   21.8361 N   0  0  0  0  0  0  0  0  0  0  0  0
   10.4739    9.4813   20.2889 C   0  0  0  0  0  0  0  0  0  0  0  0
    7.5551    7.1270   23.1200 O   0  0  0  0  0  0  0  0  0  0  0  0
  1 11  4  0
  1 21  4  0
  2  4  1  0
  2  8  1  0
  2 11  1  0
  3 10  4  0
  3 14  4  0
  4  5  1  0
  4 18  2  0
  6 12  1  0
  6 17  4  0
  6 23  4  0
  7  9  1  0
  7 13  4  0
  7 19  4  0
  9 20  1  0
 10 19  4  0
 11 25  4  0
 13 14  4  0
 15 16  4  0
 15 17  4  0
 15 21  4  0
 16 24  1  0
 16 25  4  0
 20 24  1  0
 20 26  2  0
 21 23  4  0
 22 23  1  0
M  END
$$$$

 Created by Python create_sdf_string function

 26 28  0  0  0  0  0  0  0  0999 V2000
   12.4616    8.6700   19.4180 N   0  0  0  0  0  0  0  0  0  0  0  0
   11.8329   10.8148   18.6769 N   0  0  0  0  0  0  0  0  0  0  0  0
    6.1021    2.5564   21.0678 C   0  0  0  0  0  0  0  0  0  0  0  0
   10.9097   11.8051   18.4804 C   0  0  0  0  0  0  0  0  0  0  0  0
   11.2280   12.9135   17.5669 C   0  0  0  0  0  0  0  0  0  0  0  0
   12.3782    5.4231   20.7777 C   0  0  0  0  0  0  0  0  0  0  0  0
    7.7365    4.6508   21.6987 C   0  0  0  0  0  0  0  0  0  0  0  0
   13.0186   11.0102   18.0020 C   0  0  0  0  0  0  0  0  0  0  0  0
    8.6628    5.7088   21.8871 N   0  0  0  0  0  0  0  0  0  0  0  0
    5.6516    3.5258   21.9140 C   0  0  0  0  0  0  0  0  0  0  0  0
   11.5863    9.6815   19.4539 C   0  0  0  0  0  0  0  0  0  0  0  0
   12.9648    4.1543   20.9205 C   0  0  0  0  0  0  0  0  0  0  0  0
    8.2089    3.6265   20.8929 C   0  0  0  0  0  0  0  0  0  0  0  0
    7.3827    2.5724   20.5432 C   0  0  0  0  0  0  0  0  0  0  0  0
   11.1529    7.2750   20.8025 C   0  0  0  0  0  0  0  0  0  0  0  0
   10.2573    8.3215   20.9827 C   0  0  0  0  0  0  0  0  0  0  0  0
   11.1606    5.9378   21.2366 N   0  0  0  0  0  0  0  0  0  0  0  0
    9.8932   11.6736   19.0677 O   0  0  0  0  0  0  0  0  0  0  0  0
    6.4470    4.5850   22.2321 C   0  0  0  0  0  0  0  0  0  0  0  0
    8.4619    6.9895   22.2968 C   0  0  0  0  0  0  0  0  0  0  0  0
   12.2747    7.5102   20.0420 C   0  0  0  0  0  0  0  0  0  0  0  0
   14.2544    6.2142   19.4191 C   0  0  0  0  0  0  0  0  0  0  0  0
   13.0695    6.3705   20.0375 N   0  0  0  0  0  0  0  0  0  0  0  0
    9.1913    8.0876   21.8361 N   0  0  0  0  0  0  0  0  0  0  0  0
   10.4739    9.4813   20.2889 C   0  0  0  0  0  0  0  0  0  0  0  0
    7.5551    7.1270   23.1200 O   0  0  0  0  0  0  0  0  0  0  0  0
  1 11  4  0
  1 21  4  0
  2  4  1  0
  2  8  1  0
  2 11  1  0
  3 10  4  0
  3 14  4  0
  4  5  1  0
  4 18  2  0
  6 12  1  0
  6 17  4  0
  6 23  4  0
  7  9  1  0
  7 13  4  0
  7 19  4  0
  9 20  1  0
 10 19  4  0
 11 25  4  0
 13 14  4  0
 15 16  4  0
 15 17  4  0
 15 21  4  0
 16 24  1  0
 16 25  4  0
 20 24  1  0
 20 26  2  0
 21 23  4  0
 22 23  1  0
M  END
$$$$

 Created by Python create_sdf_string function

 26 28  0  0  0  0  0  0  0  0999 V2000
   12.4616    8.6700   19.4180 N   0  0  0  0  0  0  0  0  0  0  0  0
   11.8329   10.8148   18.6769 N   0  0  0  0  0  0  0  0  0  0  0  0
    6.1021    2.5564   21.0678 C   0  0  0  0  0  0  0  0  0  0  0  0
   10.9097   11.8051   18.4804 C   0  0  0  0  0  0  0  0  0  0  0  0
   11.2280   12.9135   17.5669 C   0  0  0  0  0  0  0  0  0  0  0  0
   12.3782    5.4231   20.7777 C   0  0  0  0  0  0  0  0  0  0  0  0
    7.7365    4.6508   21.6987 C   0  0  0  0  0  0  0  0  0  0  0  0
   13.0186   11.0102   18.0020 C   0  0  0  0  0  0  0  0  0  0  0  0
    8.6628    5.7088   21.8871 N   0  0  0  0  0  0  0  0  0  0  0  0
    5.6516    3.5258   21.9140 C   0  0  0  0  0  0  0  0  0  0  0  0
   11.5863    9.6815   19.4539 C   0  0  0  0  0  0  0  0  0  0  0  0
   12.9648    4.1543   20.9205 C   0  0  0  0  0  0  0  0  0  0  0  0
    8.2089    3.6265   20.8929 C   0  0  0  0  0  0  0  0  0  0  0  0
    7.3827    2.5724   20.5432 C   0  0  0  0  0  0  0  0  0  0  0  0
   11.1529    7.2750   20.8025 C   0  0  0  0  0  0  0  0  0  0  0  0
   10.2573    8.3215   20.9827 C   0  0  0  0  0  0  0  0  0  0  0  0
   11.1606    5.9378   21.2366 N   0  0  0  0  0  0  0  0  0  0  0  0
    9.8932   11.6736   19.0677 O   0  0  0  0  0  0  0  0  0  0  0  0
    6.4470    4.5850   22.2321 C   0  0  0  0  0  0  0  0  0  0  0  0
    8.4619    6.9895   22.2968 C   0  0  0  0  0  0  0  0  0  0  0  0
   12.2747    7.5102   20.0420 C   0  0  0  0  0  0  0  0  0  0  0  0
   14.2544    6.2142   19.4191 C   0  0  0  0  0  0  0  0  0  0  0  0
   13.0695    6.3705   20.0375 N   0  0  0  0  0  0  0  0  0  0  0  0
    9.1913    8.0876   21.8361 N   0  0  0  0  0  0  0  0  0  0  0  0
   10.4739    9.4813   20.2889 C   0  0  0  0  0  0  0  0  0  0  0  0
    7.5551    7.1270   23.1200 O   0  0  0  0  0  0  0  0  0  0  0  0
  1 11  4  0
  1 21  4  0
  2  4  1  0
  2  8  1  0
  2 11  1  0
  3 10  4  0
  3 14  4  0
  4  5  1  0
  4 18  2  0
  6 12  1  0
  6 17  4  0
  6 23  4  0
  7  9  1  0
  7 13  4  0
  7 19  4  0
  9 20  1  0
 10 19  4  0
 11 25  4  0
 13 14  4  0
 15 16  4  0
 15 17  4  0
 15 21  4  0
 16 24  1  0
 16 25  4  0
 20 24  1  0
 20 26  2  0
 21 23  4  0
 22 23  1  0
M  END
$$$$

 Created by Python create_sdf_string function

 26 28  0  0  0  0  0  0  0  0999 V2000
   12.4616    8.6700   19.4180 N   0  0  0  0  0  0  0  0  0  0  0  0
   11.8329   10.8148   18.6769 N   0  0  0  0  0  0  0  0  0  0  0  0
    6.1021    2.5564   21.0678 C   0  0  0  0  0  0  0  0  0  0  0  0
   10.9097   11.8051   18.4804 C   0  0  0  0  0  0  0  0  0  0  0  0
   11.2280   12.9135   17.5669 C   0  0  0  0  0  0  0  0  0  0  0  0
   12.3782    5.4231   20.7777 C   0  0  0  0  0  0  0  0  0  0  0  0
    7.7365    4.6508   21.6987 C   0  0  0  0  0  0  0  0  0  0  0  0
   13.0186   11.0102   18.0020 C   0  0  0  0  0  0  0  0  0  0  0  0
    8.6628    5.7088   21.8871 N   0  0  0  0  0  0  0  0  0  0  0  0
    5.6516    3.5258   21.9140 C   0  0  0  0  0  0  0  0  0  0  0  0
   11.5863    9.6815   19.4539 C   0  0  0  0  0  0  0  0  0  0  0  0
   12.9648    4.1543   20.9205 C   0  0  0  0  0  0  0  0  0  0  0  0
    8.2089    3.6265   20.8929 C   0  0  0  0  0  0  0  0  0  0  0  0
    7.3827    2.5724   20.5432 C   0  0  0  0  0  0  0  0  0  0  0  0
   11.1529    7.2750   20.8025 C   0  0  0  0  0  0  0  0  0  0  0  0
   10.2573    8.3215   20.9827 C   0  0  0  0  0  0  0  0  0  0  0  0
   11.1606    5.9378   21.2366 N   0  0  0  0  0  0  0  0  0  0  0  0
    9.8932   11.6736   19.0677 O   0  0  0  0  0  0  0  0  0  0  0  0
    6.4470    4.5850   22.2321 C   0  0  0  0  0  0  0  0  0  0  0  0
    8.4619    6.9895   22.2968 C   0  0  0  0  0  0  0  0  0  0  0  0
   12.2747    7.5102   20.0420 C   0  0  0  0  0  0  0  0  0  0  0  0
   14.2544    6.2142   19.4191 C   0  0  0  0  0  0  0  0  0  0  0  0
   13.0695    6.3705   20.0375 N   0  0  0  0  0  0  0  0  0  0  0  0
    9.1913    8.0876   21.8361 N   0  0  0  0  0  0  0  0  0  0  0  0
   10.4739    9.4813   20.2889 C   0  0  0  0  0  0  0  0  0  0  0  0
    7.5551    7.1270   23.1200 O   0  0  0  0  0  0  0  0  0  0  0  0
  1 11  4  0
  1 21  4  0
  2  4  1  0
  2  8  1  0
  2 11  1  0
  3 10  4  0
  3 14  4  0
  4  5  1  0
  4 18  2  0
  6 12  1  0
  6 17  4  0
  6 23  4  0
  7  9  1  0
  7 13  4  0
  7 19  4  0
  9 20  1  0
 10 19  4  0
 11 25  4  0
 13 14  4  0
 15 16  4  0
 15 17  4  0
 15 21  4  0
 16 24  1  0
 16 25  4  0
 20 24  1  0
 20 26  2  0
 21 23  4  0
 22 23  1  0
M  END
$$$$

 Created by Python create_sdf_string function

 26 28  0  0  0  0  0  0  0  0999 V2000
   12.4616    8.6700   19.4180 N   0  0  0  0  0  0  0  0  0  0  0  0
   11.8329   10.8148   18.6769 N   0  0  0  0  0  0  0  0  0  0  0  0
    6.1021    2.5564   21.0678 C   0  0  0  0  0  0  0  0  0  0  0  0
   10.9097   11.8051   18.4804 C   0  0  0  0  0  0  0  0  0  0  0  0
   11.2280   12.9135   17.5669 C   0  0  0  0  0  0  0  0  0  0  0  0
   12.3782    5.4231   20.7777 C   0  0  0  0  0  0  0  0  0  0  0  0
    7.7365    4.6508   21.6987 C   0  0  0  0  0  0  0  0  0  0  0  0
   13.0186   11.0102   18.0020 C   0  0  0  0  0  0  0  0  0  0  0  0
    8.6628    5.7088   21.8871 N   0  0  0  0  0  0  0  0  0  0  0  0
    5.6516    3.5258   21.9140 C   0  0  0  0  0  0  0  0  0  0  0  0
   11.5863    9.6815   19.4539 C   0  0  0  0  0  0  0  0  0  0  0  0
   12.9648    4.1543   20.9205 C   0  0  0  0  0  0  0  0  0  0  0  0
    8.2089    3.6265   20.8929 C   0  0  0  0  0  0  0  0  0  0  0  0
    7.3827    2.5724   20.5432 C   0  0  0  0  0  0  0  0  0  0  0  0
   11.1529    7.2750   20.8025 C   0  0  0  0  0  0  0  0  0  0  0  0
   10.2573    8.3215   20.9827 C   0  0  0  0  0  0  0  0  0  0  0  0
   11.1606    5.9378   21.2366 N   0  0  0  0  0  0  0  0  0  0  0  0
    9.8932   11.6736   19.0677 O   0  0  0  0  0  0  0  0  0  0  0  0
    6.4470    4.5850   22.2321 C   0  0  0  0  0  0  0  0  0  0  0  0
    8.4619    6.9895   22.2968 C   0  0  0  0  0  0  0  0  0  0  0  0
   12.2747    7.5102   20.0420 C   0  0  0  0  0  0  0  0  0  0  0  0
   14.2544    6.2142   19.4191 C   0  0  0  0  0  0  0  0  0  0  0  0
   13.0695    6.3705   20.0375 N   0  0  0  0  0  0  0  0  0  0  0  0
    9.1913    8.0876   21.8361 N   0  0  0  0  0  0  0  0  0  0  0  0
   10.4739    9.4813   20.2889 C   0  0  0  0  0  0  0  0  0  0  0  0
    7.5551    7.1270   23.1200 O   0  0  0  0  0  0  0  0  0  0  0  0
  1 11  4  0
  1 21  4  0
  2  4  1  0
  2  8  1  0
  2 11  1  0
  3 10  4  0
  3 14  4  0
  4  5  1  0
  4 18  2  0
  6 12  1  0
  6 17  4  0
  6 23  4  0
  7  9  1  0
  7 13  4  0
  7 19  4  0
  9 20  1  0
 10 19  4  0
 11 25  4  0
 13 14  4  0
 15 16  4  0
 15 17  4  0
 15 21  4  0
 16 24  1  0
 16 25  4  0
 20 24  1  0
 20 26  2  0
 21 23  4  0
 22 23  1  0
M  END
$$$$

 Created by Python create_sdf_string function

 26 28  0  0  0  0  0  0  0  0999 V2000
   12.4616    8.6700   19.4180 N   0  0  0  0  0  0  0  0  0  0  0  0
   11.8329   10.8148   18.6769 N   0  0  0  0  0  0  0  0  0  0  0  0
    6.1021    2.5564   21.0678 C   0  0  0  0  0  0  0  0  0  0  0  0
   10.9097   11.8051   18.4804 C   0  0  0  0  0  0  0  0  0  0  0  0
   11.2280   12.9135   17.5669 C   0  0  0  0  0  0  0  0  0  0  0  0
   12.3782    5.4231   20.7777 C   0  0  0  0  0  0  0  0  0  0  0  0
    7.7365    4.6508   21.6987 C   0  0  0  0  0  0  0  0  0  0  0  0
   13.0186   11.0102   18.0020 C   0  0  0  0  0  0  0  0  0  0  0  0
    8.6628    5.7088   21.8871 N   0  0  0  0  0  0  0  0  0  0  0  0
    5.6516    3.5258   21.9140 C   0  0  0  0  0  0  0  0  0  0  0  0
   11.5863    9.6815   19.4539 C   0  0  0  0  0  0  0  0  0  0  0  0
   12.9648    4.1543   20.9205 C   0  0  0  0  0  0  0  0  0  0  0  0
    8.2089    3.6265   20.8929 C   0  0  0  0  0  0  0  0  0  0  0  0
    7.3827    2.5724   20.5432 C   0  0  0  0  0  0  0  0  0  0  0  0
   11.1529    7.2750   20.8025 C   0  0  0  0  0  0  0  0  0  0  0  0
   10.2573    8.3215   20.9827 C   0  0  0  0  0  0  0  0  0  0  0  0
   11.1606    5.9378   21.2366 N   0  0  0  0  0  0  0  0  0  0  0  0
    9.8932   11.6736   19.0677 O   0  0  0  0  0  0  0  0  0  0  0  0
    6.4470    4.5850   22.2321 C   0  0  0  0  0  0  0  0  0  0  0  0
    8.4619    6.9895   22.2968 C   0  0  0  0  0  0  0  0  0  0  0  0
   12.2747    7.5102   20.0420 C   0  0  0  0  0  0  0  0  0  0  0  0
   14.2544    6.2142   19.4191 C   0  0  0  0  0  0  0  0  0  0  0  0
   13.0695    6.3705   20.0375 N   0  0  0  0  0  0  0  0  0  0  0  0
    9.1913    8.0876   21.8361 N   0  0  0  0  0  0  0  0  0  0  0  0
   10.4739    9.4813   20.2889 C   0  0  0  0  0  0  0  0  0  0  0  0
    7.5551    7.1270   23.1200 O   0  0  0  0  0  0  0  0  0  0  0  0
  1 11  4  0
  1 21  4  0
  2  4  1  0
  2  8  1  0
  2 11  1  0
  3 10  4  0
  3 14  4  0
  4  5  1  0
  4 18  2  0
  6 12  1  0
  6 17  4  0
  6 23  4  0
  7  9  1  0
  7 13  4  0
  7 19  4  0
  9 20  1  0
 10 19  4  0
 11 25  4  0
 13 14  4  0
 15 16  4  0
 15 17  4  0
 15 21  4  0
 16 24  1  0
 16 25  4  0
 20 24  1  0
 20 26  2  0
 21 23  4  0
 22 23  1  0
M  END
$$$$

 Created by Python create_sdf_string function

 26 28  0  0  0  0  0  0  0  0999 V2000
   12.4616    8.6700   19.4180 N   0  0  0  0  0  0  0  0  0  0  0  0
   11.8329   10.8148   18.6769 N   0  0  0  0  0  0  0  0  0  0  0  0
    6.1021    2.5564   21.0678 C   0  0  0  0  0  0  0  0  0  0  0  0
   10.9097   11.8051   18.4804 C   0  0  0  0  0  0  0  0  0  0  0  0
   11.2280   12.9135   17.5669 C   0  0  0  0  0  0  0  0  0  0  0  0
   12.3782    5.4231   20.7777 C   0  0  0  0  0  0  0  0  0  0  0  0
    7.7365    4.6508   21.6987 C   0  0  0  0  0  0  0  0  0  0  0  0
   13.0186   11.0102   18.0020 C   0  0  0  0  0  0  0  0  0  0  0  0
    8.6628    5.7088   21.8871 N   0  0  0  0  0  0  0  0  0  0  0  0
    5.6516    3.5258   21.9140 C   0  0  0  0  0  0  0  0  0  0  0  0
   11.5863    9.6815   19.4539 C   0  0  0  0  0  0  0  0  0  0  0  0
   12.9648    4.1543   20.9205 C   0  0  0  0  0  0  0  0  0  0  0  0
    8.2089    3.6265   20.8929 C   0  0  0  0  0  0  0  0  0  0  0  0
    7.3827    2.5724   20.5432 C   0  0  0  0  0  0  0  0  0  0  0  0
   11.1529    7.2750   20.8025 C   0  0  0  0  0  0  0  0  0  0  0  0
   10.2573    8.3215   20.9827 C   0  0  0  0  0  0  0  0  0  0  0  0
   11.1606    5.9378   21.2366 N   0  0  0  0  0  0  0  0  0  0  0  0
    9.8932   11.6736   19.0677 O   0  0  0  0  0  0  0  0  0  0  0  0
    6.4470    4.5850   22.2321 C   0  0  0  0  0  0  0  0  0  0  0  0
    8.4619    6.9895   22.2968 C   0  0  0  0  0  0  0  0  0  0  0  0
   12.2747    7.5102   20.0420 C   0  0  0  0  0  0  0  0  0  0  0  0
   14.2544    6.2142   19.4191 C   0  0  0  0  0  0  0  0  0  0  0  0
   13.0695    6.3705   20.0375 N   0  0  0  0  0  0  0  0  0  0  0  0
    9.1913    8.0876   21.8361 N   0  0  0  0  0  0  0  0  0  0  0  0
   10.4739    9.4813   20.2889 C   0  0  0  0  0  0  0  0  0  0  0  0
    7.5551    7.1270   23.1200 O   0  0  0  0  0  0  0  0  0  0  0  0
  1 11  4  0
  1 21  4  0
  2  4  1  0
  2  8  1  0
  2 11  1  0
  3 10  4  0
  3 14  4  0
  4  5  1  0
  4 18  2  0
  6 12  1  0
  6 17  4  0
  6 23  4  0
  7  9  1  0
  7 13  4  0
  7 19  4  0
  9 20  1  0
 10 19  4  0
 11 25  4  0
 13 14  4  0
 15 16  4  0
 15 17  4  0
 15 21  4  0
 16 24  1  0
 16 25  4  0
 20 24  1  0
 20 26  2  0
 21 23  4  0
 22 23  1  0
M  END
$$$$

 Created by Python create_sdf_string function

 26 28  0  0  0  0  0  0  0  0999 V2000
   12.4616    8.6700   19.4180 N   0  0  0  0  0  0  0  0  0  0  0  0
   11.8329   10.8148   18.6769 N   0  0  0  0  0  0  0  0  0  0  0  0
    6.1021    2.5564   21.0678 C   0  0  0  0  0  0  0  0  0  0  0  0
   10.9097   11.8051   18.4804 C   0  0  0  0  0  0  0  0  0  0  0  0
   11.2280   12.9135   17.5669 C   0  0  0  0  0  0  0  0  0  0  0  0
   12.3782    5.4231   20.7777 C   0  0  0  0  0  0  0  0  0  0  0  0
    7.7365    4.6508   21.6987 C   0  0  0  0  0  0  0  0  0  0  0  0
   13.0186   11.0102   18.0020 C   0  0  0  0  0  0  0  0  0  0  0  0
    8.6628    5.7088   21.8871 N   0  0  0  0  0  0  0  0  0  0  0  0
    5.6516    3.5258   21.9140 C   0  0  0  0  0  0  0  0  0  0  0  0
   11.5863    9.6815   19.4539 C   0  0  0  0  0  0  0  0  0  0  0  0
   12.9648    4.1543   20.9205 C   0  0  0  0  0  0  0  0  0  0  0  0
    8.2089    3.6265   20.8929 C   0  0  0  0  0  0  0  0  0  0  0  0
    7.3827    2.5724   20.5432 C   0  0  0  0  0  0  0  0  0  0  0  0
   11.1529    7.2750   20.8025 C   0  0  0  0  0  0  0  0  0  0  0  0
   10.2573    8.3215   20.9827 C   0  0  0  0  0  0  0  0  0  0  0  0
   11.1606    5.9378   21.2366 N   0  0  0  0  0  0  0  0  0  0  0  0
    9.8932   11.6736   19.0677 O   0  0  0  0  0  0  0  0  0  0  0  0
    6.4470    4.5850   22.2321 C   0  0  0  0  0  0  0  0  0  0  0  0
    8.4619    6.9895   22.2968 C   0  0  0  0  0  0  0  0  0  0  0  0
   12.2747    7.5102   20.0420 C   0  0  0  0  0  0  0  0  0  0  0  0
   14.2544    6.2142   19.4191 C   0  0  0  0  0  0  0  0  0  0  0  0
   13.0695    6.3705   20.0375 N   0  0  0  0  0  0  0  0  0  0  0  0
    9.1913    8.0876   21.8361 N   0  0  0  0  0  0  0  0  0  0  0  0
   10.4739    9.4813   20.2889 C   0  0  0  0  0  0  0  0  0  0  0  0
    7.5551    7.1270   23.1200 O   0  0  0  0  0  0  0  0  0  0  0  0
  1 11  4  0
  1 21  4  0
  2  4  1  0
  2  8  1  0
  2 11  1  0
  3 10  4  0
  3 14  4  0
  4  5  1  0
  4 18  2  0
  6 12  1  0
  6 17  4  0
  6 23  4  0
  7  9  1  0
  7 13  4  0
  7 19  4  0
  9 20  1  0
 10 19  4  0
 11 25  4  0
 13 14  4  0
 15 16  4  0
 15 17  4  0
 15 21  4  0
 16 24  1  0
 16 25  4  0
 20 24  1  0
 20 26  2  0
 21 23  4  0
 22 23  1  0
M  END
$$$$

 Created by Python create_sdf_string function

 26 28  0  0  0  0  0  0  0  0999 V2000
   12.4616    8.6700   19.4180 N   0  0  0  0  0  0  0  0  0  0  0  0
   11.8329   10.8148   18.6769 N   0  0  0  0  0  0  0  0  0  0  0  0
    6.1021    2.5564   21.0678 C   0  0  0  0  0  0  0  0  0  0  0  0
   10.9097   11.8051   18.4804 C   0  0  0  0  0  0  0  0  0  0  0  0
   11.2280   12.9135   17.5669 C   0  0  0  0  0  0  0  0  0  0  0  0
   12.3782    5.4231   20.7777 C   0  0  0  0  0  0  0  0  0  0  0  0
    7.7365    4.6508   21.6987 C   0  0  0  0  0  0  0  0  0  0  0  0
   13.0186   11.0102   18.0020 C   0  0  0  0  0  0  0  0  0  0  0  0
    8.6628    5.7088   21.8871 N   0  0  0  0  0  0  0  0  0  0  0  0
    5.6516    3.5258   21.9140 C   0  0  0  0  0  0  0  0  0  0  0  0
   11.5863    9.6815   19.4539 C   0  0  0  0  0  0  0  0  0  0  0  0
   12.9648    4.1543   20.9205 C   0  0  0  0  0  0  0  0  0  0  0  0
    8.2089    3.6265   20.8929 C   0  0  0  0  0  0  0  0  0  0  0  0
    7.3827    2.5724   20.5432 C   0  0  0  0  0  0  0  0  0  0  0  0
   11.1529    7.2750   20.8025 C   0  0  0  0  0  0  0  0  0  0  0  0
   10.2573    8.3215   20.9827 C   0  0  0  0  0  0  0  0  0  0  0  0
   11.1606    5.9378   21.2366 N   0  0  0  0  0  0  0  0  0  0  0  0
    9.8932   11.6736   19.0677 O   0  0  0  0  0  0  0  0  0  0  0  0
    6.4470    4.5850   22.2321 C   0  0  0  0  0  0  0  0  0  0  0  0
    8.4619    6.9895   22.2968 C   0  0  0  0  0  0  0  0  0  0  0  0
   12.2747    7.5102   20.0420 C   0  0  0  0  0  0  0  0  0  0  0  0
   14.2544    6.2142   19.4191 C   0  0  0  0  0  0  0  0  0  0  0  0
   13.0695    6.3705   20.0375 N   0  0  0  0  0  0  0  0  0  0  0  0
    9.1913    8.0876   21.8361 N   0  0  0  0  0  0  0  0  0  0  0  0
   10.4739    9.4813   20.2889 C   0  0  0  0  0  0  0  0  0  0  0  0
    7.5551    7.1270   23.1200 O   0  0  0  0  0  0  0  0  0  0  0  0
  1 11  4  0
  1 21  4  0
  2  4  1  0
  2  8  1  0
  2 11  1  0
  3 10  4  0
  3 14  4  0
  4  5  1  0
  4 18  2  0
  6 12  1  0
  6 17  4  0
  6 23  4  0
  7  9  1  0
  7 13  4  0
  7 19  4  0
  9 20  1  0
 10 19  4  0
 11 25  4  0
 13 14  4  0
 15 16  4  0
 15 17  4  0
 15 21  4  0
 16 24  1  0
 16 25  4  0
 20 24  1  0
 20 26  2  0
 21 23  4  0
 22 23  1  0
M  END
$$$$

 Created by Python create_sdf_string function

 26 28  0  0  0  0  0  0  0  0999 V2000
   12.4616    8.6700   19.4180 N   0  0  0  0  0  0  0  0  0  0  0  0
   11.8329   10.8148   18.6769 N   0  0  0  0  0  0  0  0  0  0  0  0
    6.1021    2.5564   21.0678 C   0  0  0  0  0  0  0  0  0  0  0  0
   10.9097   11.8051   18.4804 C   0  0  0  0  0  0  0  0  0  0  0  0
   11.2280   12.9135   17.5669 C   0  0  0  0  0  0  0  0  0  0  0  0
   12.3782    5.4231   20.7777 C   0  0  0  0  0  0  0  0  0  0  0  0
    7.7365    4.6508   21.6987 C   0  0  0  0  0  0  0  0  0  0  0  0
   13.0186   11.0102   18.0020 C   0  0  0  0  0  0  0  0  0  0  0  0
    8.6628    5.7088   21.8871 N   0  0  0  0  0  0  0  0  0  0  0  0
    5.6516    3.5258   21.9140 C   0  0  0  0  0  0  0  0  0  0  0  0
   11.5863    9.6815   19.4539 C   0  0  0  0  0  0  0  0  0  0  0  0
   12.9648    4.1543   20.9205 C   0  0  0  0  0  0  0  0  0  0  0  0
    8.2089    3.6265   20.8929 C   0  0  0  0  0  0  0  0  0  0  0  0
    7.3827    2.5724   20.5432 C   0  0  0  0  0  0  0  0  0  0  0  0
   11.1529    7.2750   20.8025 C   0  0  0  0  0  0  0  0  0  0  0  0
   10.2573    8.3215   20.9827 C   0  0  0  0  0  0  0  0  0  0  0  0
   11.1606    5.9378   21.2366 N   0  0  0  0  0  0  0  0  0  0  0  0
    9.8932   11.6736   19.0677 O   0  0  0  0  0  0  0  0  0  0  0  0
    6.4470    4.5850   22.2321 C   0  0  0  0  0  0  0  0  0  0  0  0
    8.4619    6.9895   22.2968 C   0  0  0  0  0  0  0  0  0  0  0  0
   12.2747    7.5102   20.0420 C   0  0  0  0  0  0  0  0  0  0  0  0
   14.2544    6.2142   19.4191 C   0  0  0  0  0  0  0  0  0  0  0  0
   13.0695    6.3705   20.0375 N   0  0  0  0  0  0  0  0  0  0  0  0
    9.1913    8.0876   21.8361 N   0  0  0  0  0  0  0  0  0  0  0  0
   10.4739    9.4813   20.2889 C   0  0  0  0  0  0  0  0  0  0  0  0
    7.5551    7.1270   23.1200 O   0  0  0  0  0  0  0  0  0  0  0  0
  1 11  4  0
  1 21  4  0
  2  4  1  0
  2  8  1  0
  2 11  1  0
  3 10  4  0
  3 14  4  0
  4  5  1  0
  4 18  2  0
  6 12  1  0
  6 17  4  0
  6 23  4  0
  7  9  1  0
  7 13  4  0
  7 19  4  0
  9 20  1  0
 10 19  4  0
 11 25  4  0
 13 14  4  0
 15 16  4  0
 15 17  4  0
 15 21  4  0
 16 24  1  0
 16 25  4  0
 20 24  1  0
 20 26  2  0
 21 23  4  0
 22 23  1  0
M  END
$$$$

 Created by Python create_sdf_string function

 26 28  0  0  0  0  0  0  0  0999 V2000
   12.4616    8.6700   19.4180 N   0  0  0  0  0  0  0  0  0  0  0  0
   11.8329   10.8148   18.6769 N   0  0  0  0  0  0  0  0  0  0  0  0
    6.1021    2.5564   21.0678 C   0  0  0  0  0  0  0  0  0  0  0  0
   10.9097   11.8051   18.4804 C   0  0  0  0  0  0  0  0  0  0  0  0
   11.2280   12.9135   17.5669 C   0  0  0  0  0  0  0  0  0  0  0  0
   12.3782    5.4231   20.7777 C   0  0  0  0  0  0  0  0  0  0  0  0
    7.7365    4.6508   21.6987 C   0  0  0  0  0  0  0  0  0  0  0  0
   13.0186   11.0102   18.0020 C   0  0  0  0  0  0  0  0  0  0  0  0
    8.6628    5.7088   21.8871 N   0  0  0  0  0  0  0  0  0  0  0  0
    5.6516    3.5258   21.9140 C   0  0  0  0  0  0  0  0  0  0  0  0
   11.5863    9.6815   19.4539 C   0  0  0  0  0  0  0  0  0  0  0  0
   12.9648    4.1543   20.9205 C   0  0  0  0  0  0  0  0  0  0  0  0
    8.2089    3.6265   20.8929 C   0  0  0  0  0  0  0  0  0  0  0  0
    7.3827    2.5724   20.5432 C   0  0  0  0  0  0  0  0  0  0  0  0
   11.1529    7.2750   20.8025 C   0  0  0  0  0  0  0  0  0  0  0  0
   10.2573    8.3215   20.9827 C   0  0  0  0  0  0  0  0  0  0  0  0
   11.1606    5.9378   21.2366 N   0  0  0  0  0  0  0  0  0  0  0  0
    9.8932   11.6736   19.0677 O   0  0  0  0  0  0  0  0  0  0  0  0
    6.4470    4.5850   22.2321 C   0  0  0  0  0  0  0  0  0  0  0  0
    8.4619    6.9895   22.2968 C   0  0  0  0  0  0  0  0  0  0  0  0
   12.2747    7.5102   20.0420 C   0  0  0  0  0  0  0  0  0  0  0  0
   14.2544    6.2142   19.4191 C   0  0  0  0  0  0  0  0  0  0  0  0
   13.0695    6.3705   20.0375 N   0  0  0  0  0  0  0  0  0  0  0  0
    9.1913    8.0876   21.8361 N   0  0  0  0  0  0  0  0  0  0  0  0
   10.4739    9.4813   20.2889 C   0  0  0  0  0  0  0  0  0  0  0  0
    7.5551    7.1270   23.1200 O   0  0  0  0  0  0  0  0  0  0  0  0
  1 11  4  0
  1 21  4  0
  2  4  1  0
  2  8  1  0
  2 11  1  0
  3 10  4  0
  3 14  4  0
  4  5  1  0
  4 18  2  0
  6 12  1  0
  6 17  4  0
  6 23  4  0
  7  9  1  0
  7 13  4  0
  7 19  4  0
  9 20  1  0
 10 19  4  0
 11 25  4  0
 13 14  4  0
 15 16  4  0
 15 17  4  0
 15 21  4  0
 16 24  1  0
 16 25  4  0
 20 24  1  0
 20 26  2  0
 21 23  4  0
 22 23  1  0
M  END
$$$$

 Created by Python create_sdf_string function

 26 28  0  0  0  0  0  0  0  0999 V2000
   12.4616    8.6700   19.4180 N   0  0  0  0  0  0  0  0  0  0  0  0
   11.8329   10.8148   18.6769 N   0  0  0  0  0  0  0  0  0  0  0  0
    6.1021    2.5564   21.0678 C   0  0  0  0  0  0  0  0  0  0  0  0
   10.9097   11.8051   18.4804 C   0  0  0  0  0  0  0  0  0  0  0  0
   11.2280   12.9135   17.5669 C   0  0  0  0  0  0  0  0  0  0  0  0
   12.3782    5.4231   20.7777 C   0  0  0  0  0  0  0  0  0  0  0  0
    7.7365    4.6508   21.6987 C   0  0  0  0  0  0  0  0  0  0  0  0
   13.0186   11.0102   18.0020 C   0  0  0  0  0  0  0  0  0  0  0  0
    8.6628    5.7088   21.8871 N   0  0  0  0  0  0  0  0  0  0  0  0
    5.6516    3.5258   21.9140 C   0  0  0  0  0  0  0  0  0  0  0  0
   11.5863    9.6815   19.4539 C   0  0  0  0  0  0  0  0  0  0  0  0
   12.9648    4.1543   20.9205 C   0  0  0  0  0  0  0  0  0  0  0  0
    8.2089    3.6265   20.8929 C   0  0  0  0  0  0  0  0  0  0  0  0
    7.3827    2.5724   20.5432 C   0  0  0  0  0  0  0  0  0  0  0  0
   11.1529    7.2750   20.8025 C   0  0  0  0  0  0  0  0  0  0  0  0
   10.2573    8.3215   20.9827 C   0  0  0  0  0  0  0  0  0  0  0  0
   11.1606    5.9378   21.2366 N   0  0  0  0  0  0  0  0  0  0  0  0
    9.8932   11.6736   19.0677 O   0  0  0  0  0  0  0  0  0  0  0  0
    6.4470    4.5850   22.2321 C   0  0  0  0  0  0  0  0  0  0  0  0
    8.4619    6.9895   22.2968 C   0  0  0  0  0  0  0  0  0  0  0  0
   12.2747    7.5102   20.0420 C   0  0  0  0  0  0  0  0  0  0  0  0
   14.2544    6.2142   19.4191 C   0  0  0  0  0  0  0  0  0  0  0  0
   13.0695    6.3705   20.0375 N   0  0  0  0  0  0  0  0  0  0  0  0
    9.1913    8.0876   21.8361 N   0  0  0  0  0  0  0  0  0  0  0  0
   10.4739    9.4813   20.2889 C   0  0  0  0  0  0  0  0  0  0  0  0
    7.5551    7.1270   23.1200 O   0  0  0  0  0  0  0  0  0  0  0  0
  1 11  4  0
  1 21  4  0
  2  4  1  0
  2  8  1  0
  2 11  1  0
  3 10  4  0
  3 14  4  0
  4  5  1  0
  4 18  2  0
  6 12  1  0
  6 17  4  0
  6 23  4  0
  7  9  1  0
  7 13  4  0
  7 19  4  0
  9 20  1  0
 10 19  4  0
 11 25  4  0
 13 14  4  0
 15 16  4  0
 15 17  4  0
 15 21  4  0
 16 24  1  0
 16 25  4  0
 20 24  1  0
 20 26  2  0
 21 23  4  0
 22 23  1  0
M  END
$$$$

 Created by Python create_sdf_string function

 26 28  0  0  0  0  0  0  0  0999 V2000
   12.4616    8.6700   19.4180 N   0  0  0  0  0  0  0  0  0  0  0  0
   11.8329   10.8148   18.6769 N   0  0  0  0  0  0  0  0  0  0  0  0
    6.1021    2.5564   21.0678 C   0  0  0  0  0  0  0  0  0  0  0  0
   10.9097   11.8051   18.4804 C   0  0  0  0  0  0  0  0  0  0  0  0
   11.2280   12.9135   17.5669 C   0  0  0  0  0  0  0  0  0  0  0  0
   12.3782    5.4231   20.7777 C   0  0  0  0  0  0  0  0  0  0  0  0
    7.7365    4.6508   21.6987 C   0  0  0  0  0  0  0  0  0  0  0  0
   13.0186   11.0102   18.0020 C   0  0  0  0  0  0  0  0  0  0  0  0
    8.6628    5.7088   21.8871 N   0  0  0  0  0  0  0  0  0  0  0  0
    5.6516    3.5258   21.9140 C   0  0  0  0  0  0  0  0  0  0  0  0
   11.5863    9.6815   19.4539 C   0  0  0  0  0  0  0  0  0  0  0  0
   12.9648    4.1543   20.9205 C   0  0  0  0  0  0  0  0  0  0  0  0
    8.2089    3.6265   20.8929 C   0  0  0  0  0  0  0  0  0  0  0  0
    7.3827    2.5724   20.5432 C   0  0  0  0  0  0  0  0  0  0  0  0
   11.1529    7.2750   20.8025 C   0  0  0  0  0  0  0  0  0  0  0  0
   10.2573    8.3215   20.9827 C   0  0  0  0  0  0  0  0  0  0  0  0
   11.1606    5.9378   21.2366 N   0  0  0  0  0  0  0  0  0  0  0  0
    9.8932   11.6736   19.0677 O   0  0  0  0  0  0  0  0  0  0  0  0
    6.4470    4.5850   22.2321 C   0  0  0  0  0  0  0  0  0  0  0  0
    8.4619    6.9895   22.2968 C   0  0  0  0  0  0  0  0  0  0  0  0
   12.2747    7.5102   20.0420 C   0  0  0  0  0  0  0  0  0  0  0  0
   14.2544    6.2142   19.4191 C   0  0  0  0  0  0  0  0  0  0  0  0
   13.0695    6.3705   20.0375 N   0  0  0  0  0  0  0  0  0  0  0  0
    9.1913    8.0876   21.8361 N   0  0  0  0  0  0  0  0  0  0  0  0
   10.4739    9.4813   20.2889 C   0  0  0  0  0  0  0  0  0  0  0  0
    7.5551    7.1270   23.1200 O   0  0  0  0  0  0  0  0  0  0  0  0
  1 11  4  0
  1 21  4  0
  2  4  1  0
  2  8  1  0
  2 11  1  0
  3 10  4  0
  3 14  4  0
  4  5  1  0
  4 18  2  0
  6 12  1  0
  6 17  4  0
  6 23  4  0
  7  9  1  0
  7 13  4  0
  7 19  4  0
  9 20  1  0
 10 19  4  0
 11 25  4  0
 13 14  4  0
 15 16  4  0
 15 17  4  0
 15 21  4  0
 16 24  1  0
 16 25  4  0
 20 24  1  0
 20 26  2  0
 21 23  4  0
 22 23  1  0
M  END
$$$$

 Created by Python create_sdf_string function

 26 28  0  0  0  0  0  0  0  0999 V2000
   12.4616    8.6700   19.4180 N   0  0  0  0  0  0  0  0  0  0  0  0
   11.8329   10.8148   18.6769 N   0  0  0  0  0  0  0  0  0  0  0  0
    6.1021    2.5564   21.0678 C   0  0  0  0  0  0  0  0  0  0  0  0
   10.9097   11.8051   18.4804 C   0  0  0  0  0  0  0  0  0  0  0  0
   11.2280   12.9135   17.5669 C   0  0  0  0  0  0  0  0  0  0  0  0
   12.3782    5.4231   20.7777 C   0  0  0  0  0  0  0  0  0  0  0  0
    7.7365    4.6508   21.6987 C   0  0  0  0  0  0  0  0  0  0  0  0
   13.0186   11.0102   18.0020 C   0  0  0  0  0  0  0  0  0  0  0  0
    8.6628    5.7088   21.8871 N   0  0  0  0  0  0  0  0  0  0  0  0
    5.6516    3.5258   21.9140 C   0  0  0  0  0  0  0  0  0  0  0  0
   11.5863    9.6815   19.4539 C   0  0  0  0  0  0  0  0  0  0  0  0
   12.9648    4.1543   20.9205 C   0  0  0  0  0  0  0  0  0  0  0  0
    8.2089    3.6265   20.8929 C   0  0  0  0  0  0  0  0  0  0  0  0
    7.3827    2.5724   20.5432 C   0  0  0  0  0  0  0  0  0  0  0  0
   11.1529    7.2750   20.8025 C   0  0  0  0  0  0  0  0  0  0  0  0
   10.2573    8.3215   20.9827 C   0  0  0  0  0  0  0  0  0  0  0  0
   11.1606    5.9378   21.2366 N   0  0  0  0  0  0  0  0  0  0  0  0
    9.8932   11.6736   19.0677 O   0  0  0  0  0  0  0  0  0  0  0  0
    6.4470    4.5850   22.2321 C   0  0  0  0  0  0  0  0  0  0  0  0
    8.4619    6.9895   22.2968 C   0  0  0  0  0  0  0  0  0  0  0  0
   12.2747    7.5102   20.0420 C   0  0  0  0  0  0  0  0  0  0  0  0
   14.2544    6.2142   19.4191 C   0  0  0  0  0  0  0  0  0  0  0  0
   13.0695    6.3705   20.0375 N   0  0  0  0  0  0  0  0  0  0  0  0
    9.1913    8.0876   21.8361 N   0  0  0  0  0  0  0  0  0  0  0  0
   10.4739    9.4813   20.2889 C   0  0  0  0  0  0  0  0  0  0  0  0
    7.5551    7.1270   23.1200 O   0  0  0  0  0  0  0  0  0  0  0  0
  1 11  4  0
  1 21  4  0
  2  4  1  0
  2  8  1  0
  2 11  1  0
  3 10  4  0
  3 14  4  0
  4  5  1  0
  4 18  2  0
  6 12  1  0
  6 17  4  0
  6 23  4  0
  7  9  1  0
  7 13  4  0
  7 19  4  0
  9 20  1  0
 10 19  4  0
 11 25  4  0
 13 14  4  0
 15 16  4  0
 15 17  4  0
 15 21  4  0
 16 24  1  0
 16 25  4  0
 20 24  1  0
 20 26  2  0
 21 23  4  0
 22 23  1  0
M  END
$$$$

 Created by Python create_sdf_string function

 26 28  0  0  0  0  0  0  0  0999 V2000
   12.4616    8.6700   19.4180 N   0  0  0  0  0  0  0  0  0  0  0  0
   11.8329   10.8148   18.6769 N   0  0  0  0  0  0  0  0  0  0  0  0
    6.1021    2.5564   21.0678 C   0  0  0  0  0  0  0  0  0  0  0  0
   10.9097   11.8051   18.4804 C   0  0  0  0  0  0  0  0  0  0  0  0
   11.2280   12.9135   17.5669 C   0  0  0  0  0  0  0  0  0  0  0  0
   12.3782    5.4231   20.7777 C   0  0  0  0  0  0  0  0  0  0  0  0
    7.7365    4.6508   21.6987 C   0  0  0  0  0  0  0  0  0  0  0  0
   13.0186   11.0102   18.0020 C   0  0  0  0  0  0  0  0  0  0  0  0
    8.6628    5.7088   21.8871 N   0  0  0  0  0  0  0  0  0  0  0  0
    5.6516    3.5258   21.9140 C   0  0  0  0  0  0  0  0  0  0  0  0
   11.5863    9.6815   19.4539 C   0  0  0  0  0  0  0  0  0  0  0  0
   12.9648    4.1543   20.9205 C   0  0  0  0  0  0  0  0  0  0  0  0
    8.2089    3.6265   20.8929 C   0  0  0  0  0  0  0  0  0  0  0  0
    7.3827    2.5724   20.5432 C   0  0  0  0  0  0  0  0  0  0  0  0
   11.1529    7.2750   20.8025 C   0  0  0  0  0  0  0  0  0  0  0  0
   10.2573    8.3215   20.9827 C   0  0  0  0  0  0  0  0  0  0  0  0
   11.1606    5.9378   21.2366 N   0  0  0  0  0  0  0  0  0  0  0  0
    9.8932   11.6736   19.0677 O   0  0  0  0  0  0  0  0  0  0  0  0
    6.4470    4.5850   22.2321 C   0  0  0  0  0  0  0  0  0  0  0  0
    8.4619    6.9895   22.2968 C   0  0  0  0  0  0  0  0  0  0  0  0
   12.2747    7.5102   20.0420 C   0  0  0  0  0  0  0  0  0  0  0  0
   14.2544    6.2142   19.4191 C   0  0  0  0  0  0  0  0  0  0  0  0
   13.0695    6.3705   20.0375 N   0  0  0  0  0  0  0  0  0  0  0  0
    9.1913    8.0876   21.8361 N   0  0  0  0  0  0  0  0  0  0  0  0
   10.4739    9.4813   20.2889 C   0  0  0  0  0  0  0  0  0  0  0  0
    7.5551    7.1270   23.1200 O   0  0  0  0  0  0  0  0  0  0  0  0
  1 11  4  0
  1 21  4  0
  2  4  1  0
  2  8  1  0
  2 11  1  0
  3 10  4  0
  3 14  4  0
  4  5  1  0
  4 18  2  0
  6 12  1  0
  6 17  4  0
  6 23  4  0
  7  9  1  0
  7 13  4  0
  7 19  4  0
  9 20  1  0
 10 19  4  0
 11 25  4  0
 13 14  4  0
 15 16  4  0
 15 17  4  0
 15 21  4  0
 16 24  1  0
 16 25  4  0
 20 24  1  0
 20 26  2  0
 21 23  4  0
 22 23  1  0
M  END
$$$$

 Created by Python create_sdf_string function

 26 28  0  0  0  0  0  0  0  0999 V2000
   12.4616    8.6700   19.4180 N   0  0  0  0  0  0  0  0  0  0  0  0
   11.8329   10.8148   18.6769 N   0  0  0  0  0  0  0  0  0  0  0  0
    6.1021    2.5564   21.0678 C   0  0  0  0  0  0  0  0  0  0  0  0
   10.9097   11.8051   18.4804 C   0  0  0  0  0  0  0  0  0  0  0  0
   11.2280   12.9135   17.5669 C   0  0  0  0  0  0  0  0  0  0  0  0
   12.3782    5.4231   20.7777 C   0  0  0  0  0  0  0  0  0  0  0  0
    7.7365    4.6508   21.6987 C   0  0  0  0  0  0  0  0  0  0  0  0
   13.0186   11.0102   18.0020 C   0  0  0  0  0  0  0  0  0  0  0  0
    8.6628    5.7088   21.8871 N   0  0  0  0  0  0  0  0  0  0  0  0
    5.6516    3.5258   21.9140 C   0  0  0  0  0  0  0  0  0  0  0  0
   11.5863    9.6815   19.4539 C   0  0  0  0  0  0  0  0  0  0  0  0
   12.9648    4.1543   20.9205 C   0  0  0  0  0  0  0  0  0  0  0  0
    8.2089    3.6265   20.8929 C   0  0  0  0  0  0  0  0  0  0  0  0
    7.3827    2.5724   20.5432 C   0  0  0  0  0  0  0  0  0  0  0  0
   11.1529    7.2750   20.8025 C   0  0  0  0  0  0  0  0  0  0  0  0
   10.2573    8.3215   20.9827 C   0  0  0  0  0  0  0  0  0  0  0  0
   11.1606    5.9378   21.2366 N   0  0  0  0  0  0  0  0  0  0  0  0
    9.8932   11.6736   19.0677 O   0  0  0  0  0  0  0  0  0  0  0  0
    6.4470    4.5850   22.2321 C   0  0  0  0  0  0  0  0  0  0  0  0
    8.4619    6.9895   22.2968 C   0  0  0  0  0  0  0  0  0  0  0  0
   12.2747    7.5102   20.0420 C   0  0  0  0  0  0  0  0  0  0  0  0
   14.2544    6.2142   19.4191 C   0  0  0  0  0  0  0  0  0  0  0  0
   13.0695    6.3705   20.0375 N   0  0  0  0  0  0  0  0  0  0  0  0
    9.1913    8.0876   21.8361 N   0  0  0  0  0  0  0  0  0  0  0  0
   10.4739    9.4813   20.2889 C   0  0  0  0  0  0  0  0  0  0  0  0
    7.5551    7.1270   23.1200 O   0  0  0  0  0  0  0  0  0  0  0  0
  1 11  4  0
  1 21  4  0
  2  4  1  0
  2  8  1  0
  2 11  1  0
  3 10  4  0
  3 14  4  0
  4  5  1  0
  4 18  2  0
  6 12  1  0
  6 17  4  0
  6 23  4  0
  7  9  1  0
  7 13  4  0
  7 19  4  0
  9 20  1  0
 10 19  4  0
 11 25  4  0
 13 14  4  0
 15 16  4  0
 15 17  4  0
 15 21  4  0
 16 24  1  0
 16 25  4  0
 20 24  1  0
 20 26  2  0
 21 23  4  0
 22 23  1  0
M  END
$$$$

 Created by Python create_sdf_string function

 26 28  0  0  0  0  0  0  0  0999 V2000
   12.4616    8.6700   19.4180 N   0  0  0  0  0  0  0  0  0  0  0  0
   11.8329   10.8148   18.6769 N   0  0  0  0  0  0  0  0  0  0  0  0
    6.1021    2.5564   21.0678 C   0  0  0  0  0  0  0  0  0  0  0  0
   10.9097   11.8051   18.4804 C   0  0  0  0  0  0  0  0  0  0  0  0
   11.2280   12.9135   17.5669 C   0  0  0  0  0  0  0  0  0  0  0  0
   12.3782    5.4231   20.7777 C   0  0  0  0  0  0  0  0  0  0  0  0
    7.7365    4.6508   21.6987 C   0  0  0  0  0  0  0  0  0  0  0  0
   13.0186   11.0102   18.0020 C   0  0  0  0  0  0  0  0  0  0  0  0
    8.6628    5.7088   21.8871 N   0  0  0  0  0  0  0  0  0  0  0  0
    5.6516    3.5258   21.9140 C   0  0  0  0  0  0  0  0  0  0  0  0
   11.5863    9.6815   19.4539 C   0  0  0  0  0  0  0  0  0  0  0  0
   12.9648    4.1543   20.9205 C   0  0  0  0  0  0  0  0  0  0  0  0
    8.2089    3.6265   20.8929 C   0  0  0  0  0  0  0  0  0  0  0  0
    7.3827    2.5724   20.5432 C   0  0  0  0  0  0  0  0  0  0  0  0
   11.1529    7.2750   20.8025 C   0  0  0  0  0  0  0  0  0  0  0  0
   10.2573    8.3215   20.9827 C   0  0  0  0  0  0  0  0  0  0  0  0
   11.1606    5.9378   21.2366 N   0  0  0  0  0  0  0  0  0  0  0  0
    9.8932   11.6736   19.0677 O   0  0  0  0  0  0  0  0  0  0  0  0
    6.4470    4.5850   22.2321 C   0  0  0  0  0  0  0  0  0  0  0  0
    8.4619    6.9895   22.2968 C   0  0  0  0  0  0  0  0  0  0  0  0
   12.2747    7.5102   20.0420 C   0  0  0  0  0  0  0  0  0  0  0  0
   14.2544    6.2142   19.4191 C   0  0  0  0  0  0  0  0  0  0  0  0
   13.0695    6.3705   20.0375 N   0  0  0  0  0  0  0  0  0  0  0  0
    9.1913    8.0876   21.8361 N   0  0  0  0  0  0  0  0  0  0  0  0
   10.4739    9.4813   20.2889 C   0  0  0  0  0  0  0  0  0  0  0  0
    7.5551    7.1270   23.1200 O   0  0  0  0  0  0  0  0  0  0  0  0
  1 11  4  0
  1 21  4  0
  2  4  1  0
  2  8  1  0
  2 11  1  0
  3 10  4  0
  3 14  4  0
  4  5  1  0
  4 18  2  0
  6 12  1  0
  6 17  4  0
  6 23  4  0
  7  9  1  0
  7 13  4  0
  7 19  4  0
  9 20  1  0
 10 19  4  0
 11 25  4  0
 13 14  4  0
 15 16  4  0
 15 17  4  0
 15 21  4  0
 16 24  1  0
 16 25  4  0
 20 24  1  0
 20 26  2  0
 21 23  4  0
 22 23  1  0
M  END
$$$$

 Created by Python create_sdf_string function

 26 28  0  0  0  0  0  0  0  0999 V2000
   12.4616    8.6700   19.4180 N   0  0  0  0  0  0  0  0  0  0  0  0
   11.8329   10.8148   18.6769 N   0  0  0  0  0  0  0  0  0  0  0  0
    6.1021    2.5564   21.0678 C   0  0  0  0  0  0  0  0  0  0  0  0
   10.9097   11.8051   18.4804 C   0  0  0  0  0  0  0  0  0  0  0  0
   11.2280   12.9135   17.5669 C   0  0  0  0  0  0  0  0  0  0  0  0
   12.3782    5.4231   20.7777 C   0  0  0  0  0  0  0  0  0  0  0  0
    7.7365    4.6508   21.6987 C   0  0  0  0  0  0  0  0  0  0  0  0
   13.0186   11.0102   18.0020 C   0  0  0  0  0  0  0  0  0  0  0  0
    8.6628    5.7088   21.8871 N   0  0  0  0  0  0  0  0  0  0  0  0
    5.6516    3.5258   21.9140 C   0  0  0  0  0  0  0  0  0  0  0  0
   11.5863    9.6815   19.4539 C   0  0  0  0  0  0  0  0  0  0  0  0
   12.9648    4.1543   20.9205 C   0  0  0  0  0  0  0  0  0  0  0  0
    8.2089    3.6265   20.8929 C   0  0  0  0  0  0  0  0  0  0  0  0
    7.3827    2.5724   20.5432 C   0  0  0  0  0  0  0  0  0  0  0  0
   11.1529    7.2750   20.8025 C   0  0  0  0  0  0  0  0  0  0  0  0
   10.2573    8.3215   20.9827 C   0  0  0  0  0  0  0  0  0  0  0  0
   11.1606    5.9378   21.2366 N   0  0  0  0  0  0  0  0  0  0  0  0
    9.8932   11.6736   19.0677 O   0  0  0  0  0  0  0  0  0  0  0  0
    6.4470    4.5850   22.2321 C   0  0  0  0  0  0  0  0  0  0  0  0
    8.4619    6.9895   22.2968 C   0  0  0  0  0  0  0  0  0  0  0  0
   12.2747    7.5102   20.0420 C   0  0  0  0  0  0  0  0  0  0  0  0
   14.2544    6.2142   19.4191 C   0  0  0  0  0  0  0  0  0  0  0  0
   13.0695    6.3705   20.0375 N   0  0  0  0  0  0  0  0  0  0  0  0
    9.1913    8.0876   21.8361 N   0  0  0  0  0  0  0  0  0  0  0  0
   10.4739    9.4813   20.2889 C   0  0  0  0  0  0  0  0  0  0  0  0
    7.5551    7.1270   23.1200 O   0  0  0  0  0  0  0  0  0  0  0  0
  1 11  4  0
  1 21  4  0
  2  4  1  0
  2  8  1  0
  2 11  1  0
  3 10  4  0
  3 14  4  0
  4  5  1  0
  4 18  2  0
  6 12  1  0
  6 17  4  0
  6 23  4  0
  7  9  1  0
  7 13  4  0
  7 19  4  0
  9 20  1  0
 10 19  4  0
 11 25  4  0
 13 14  4  0
 15 16  4  0
 15 17  4  0
 15 21  4  0
 16 24  1  0
 16 25  4  0
 20 24  1  0
 20 26  2  0
 21 23  4  0
 22 23  1  0
M  END
$$$$

 Created by Python create_sdf_string function

 26 28  0  0  0  0  0  0  0  0999 V2000
   12.4616    8.6700   19.4180 N   0  0  0  0  0  0  0  0  0  0  0  0
   11.8329   10.8148   18.6769 N   0  0  0  0  0  0  0  0  0  0  0  0
    6.1021    2.5564   21.0678 C   0  0  0  0  0  0  0  0  0  0  0  0
   10.9097   11.8051   18.4804 C   0  0  0  0  0  0  0  0  0  0  0  0
   11.2280   12.9135   17.5669 C   0  0  0  0  0  0  0  0  0  0  0  0
   12.3782    5.4231   20.7777 C   0  0  0  0  0  0  0  0  0  0  0  0
    7.7365    4.6508   21.6987 C   0  0  0  0  0  0  0  0  0  0  0  0
   13.0186   11.0102   18.0020 C   0  0  0  0  0  0  0  0  0  0  0  0
    8.6628    5.7088   21.8871 N   0  0  0  0  0  0  0  0  0  0  0  0
    5.6516    3.5258   21.9140 C   0  0  0  0  0  0  0  0  0  0  0  0
   11.5863    9.6815   19.4539 C   0  0  0  0  0  0  0  0  0  0  0  0
   12.9648    4.1543   20.9205 C   0  0  0  0  0  0  0  0  0  0  0  0
    8.2089    3.6265   20.8929 C   0  0  0  0  0  0  0  0  0  0  0  0
    7.3827    2.5724   20.5432 C   0  0  0  0  0  0  0  0  0  0  0  0
   11.1529    7.2750   20.8025 C   0  0  0  0  0  0  0  0  0  0  0  0
   10.2573    8.3215   20.9827 C   0  0  0  0  0  0  0  0  0  0  0  0
   11.1606    5.9378   21.2366 N   0  0  0  0  0  0  0  0  0  0  0  0
    9.8932   11.6736   19.0677 O   0  0  0  0  0  0  0  0  0  0  0  0
    6.4470    4.5850   22.2321 C   0  0  0  0  0  0  0  0  0  0  0  0
    8.4619    6.9895   22.2968 C   0  0  0  0  0  0  0  0  0  0  0  0
   12.2747    7.5102   20.0420 C   0  0  0  0  0  0  0  0  0  0  0  0
   14.2544    6.2142   19.4191 C   0  0  0  0  0  0  0  0  0  0  0  0
   13.0695    6.3705   20.0375 N   0  0  0  0  0  0  0  0  0  0  0  0
    9.1913    8.0876   21.8361 N   0  0  0  0  0  0  0  0  0  0  0  0
   10.4739    9.4813   20.2889 C   0  0  0  0  0  0  0  0  0  0  0  0
    7.5551    7.1270   23.1200 O   0  0  0  0  0  0  0  0  0  0  0  0
  1 11  4  0
  1 21  4  0
  2  4  1  0
  2  8  1  0
  2 11  1  0
  3 10  4  0
  3 14  4  0
  4  5  1  0
  4 18  2  0
  6 12  1  0
  6 17  4  0
  6 23  4  0
  7  9  1  0
  7 13  4  0
  7 19  4  0
  9 20  1  0
 10 19  4  0
 11 25  4  0
 13 14  4  0
 15 16  4  0
 15 17  4  0
 15 21  4  0
 16 24  1  0
 16 25  4  0
 20 24  1  0
 20 26  2  0
 21 23  4  0
 22 23  1  0
M  END
$$$$

 Created by Python create_sdf_string function

 26 28  0  0  0  0  0  0  0  0999 V2000
   12.4616    8.6700   19.4180 N   0  0  0  0  0  0  0  0  0  0  0  0
   11.8329   10.8148   18.6769 N   0  0  0  0  0  0  0  0  0  0  0  0
    6.1021    2.5564   21.0678 C   0  0  0  0  0  0  0  0  0  0  0  0
   10.9097   11.8051   18.4804 C   0  0  0  0  0  0  0  0  0  0  0  0
   11.2280   12.9135   17.5669 C   0  0  0  0  0  0  0  0  0  0  0  0
   12.3782    5.4231   20.7777 C   0  0  0  0  0  0  0  0  0  0  0  0
    7.7365    4.6508   21.6987 C   0  0  0  0  0  0  0  0  0  0  0  0
   13.0186   11.0102   18.0020 C   0  0  0  0  0  0  0  0  0  0  0  0
    8.6628    5.7088   21.8871 N   0  0  0  0  0  0  0  0  0  0  0  0
    5.6516    3.5258   21.9140 C   0  0  0  0  0  0  0  0  0  0  0  0
   11.5863    9.6815   19.4539 C   0  0  0  0  0  0  0  0  0  0  0  0
   12.9648    4.1543   20.9205 C   0  0  0  0  0  0  0  0  0  0  0  0
    8.2089    3.6265   20.8929 C   0  0  0  0  0  0  0  0  0  0  0  0
    7.3827    2.5724   20.5432 C   0  0  0  0  0  0  0  0  0  0  0  0
   11.1529    7.2750   20.8025 C   0  0  0  0  0  0  0  0  0  0  0  0
   10.2573    8.3215   20.9827 C   0  0  0  0  0  0  0  0  0  0  0  0
   11.1606    5.9378   21.2366 N   0  0  0  0  0  0  0  0  0  0  0  0
    9.8932   11.6736   19.0677 O   0  0  0  0  0  0  0  0  0  0  0  0
    6.4470    4.5850   22.2321 C   0  0  0  0  0  0  0  0  0  0  0  0
    8.4619    6.9895   22.2968 C   0  0  0  0  0  0  0  0  0  0  0  0
   12.2747    7.5102   20.0420 C   0  0  0  0  0  0  0  0  0  0  0  0
   14.2544    6.2142   19.4191 C   0  0  0  0  0  0  0  0  0  0  0  0
   13.0695    6.3705   20.0375 N   0  0  0  0  0  0  0  0  0  0  0  0
    9.1913    8.0876   21.8361 N   0  0  0  0  0  0  0  0  0  0  0  0
   10.4739    9.4813   20.2889 C   0  0  0  0  0  0  0  0  0  0  0  0
    7.5551    7.1270   23.1200 O   0  0  0  0  0  0  0  0  0  0  0  0
  1 11  4  0
  1 21  4  0
  2  4  1  0
  2  8  1  0
  2 11  1  0
  3 10  4  0
  3 14  4  0
  4  5  1  0
  4 18  2  0
  6 12  1  0
  6 17  4  0
  6 23  4  0
  7  9  1  0
  7 13  4  0
  7 19  4  0
  9 20  1  0
 10 19  4  0
 11 25  4  0
 13 14  4  0
 15 16  4  0
 15 17  4  0
 15 21  4  0
 16 24  1  0
 16 25  4  0
 20 24  1  0
 20 26  2  0
 21 23  4  0
 22 23  1  0
M  END
$$$$

 Created by Python create_sdf_string function

 26 28  0  0  0  0  0  0  0  0999 V2000
   12.4616    8.6700   19.4180 N   0  0  0  0  0  0  0  0  0  0  0  0
   11.8329   10.8148   18.6769 N   0  0  0  0  0  0  0  0  0  0  0  0
    6.1021    2.5564   21.0678 C   0  0  0  0  0  0  0  0  0  0  0  0
   10.9097   11.8051   18.4804 C   0  0  0  0  0  0  0  0  0  0  0  0
   11.2280   12.9135   17.5669 C   0  0  0  0  0  0  0  0  0  0  0  0
   12.3782    5.4231   20.7777 C   0  0  0  0  0  0  0  0  0  0  0  0
    7.7365    4.6508   21.6987 C   0  0  0  0  0  0  0  0  0  0  0  0
   13.0186   11.0102   18.0020 C   0  0  0  0  0  0  0  0  0  0  0  0
    8.6628    5.7088   21.8871 N   0  0  0  0  0  0  0  0  0  0  0  0
    5.6516    3.5258   21.9140 C   0  0  0  0  0  0  0  0  0  0  0  0
   11.5863    9.6815   19.4539 C   0  0  0  0  0  0  0  0  0  0  0  0
   12.9648    4.1543   20.9205 C   0  0  0  0  0  0  0  0  0  0  0  0
    8.2089    3.6265   20.8929 C   0  0  0  0  0  0  0  0  0  0  0  0
    7.3827    2.5724   20.5432 C   0  0  0  0  0  0  0  0  0  0  0  0
   11.1529    7.2750   20.8025 C   0  0  0  0  0  0  0  0  0  0  0  0
   10.2573    8.3215   20.9827 C   0  0  0  0  0  0  0  0  0  0  0  0
   11.1606    5.9378   21.2366 N   0  0  0  0  0  0  0  0  0  0  0  0
    9.8932   11.6736   19.0677 O   0  0  0  0  0  0  0  0  0  0  0  0
    6.4470    4.5850   22.2321 C   0  0  0  0  0  0  0  0  0  0  0  0
    8.4619    6.9895   22.2968 C   0  0  0  0  0  0  0  0  0  0  0  0
   12.2747    7.5102   20.0420 C   0  0  0  0  0  0  0  0  0  0  0  0
   14.2544    6.2142   19.4191 C   0  0  0  0  0  0  0  0  0  0  0  0
   13.0695    6.3705   20.0375 N   0  0  0  0  0  0  0  0  0  0  0  0
    9.1913    8.0876   21.8361 N   0  0  0  0  0  0  0  0  0  0  0  0
   10.4739    9.4813   20.2889 C   0  0  0  0  0  0  0  0  0  0  0  0
    7.5551    7.1270   23.1200 O   0  0  0  0  0  0  0  0  0  0  0  0
  1 11  4  0
  1 21  4  0
  2  4  1  0
  2  8  1  0
  2 11  1  0
  3 10  4  0
  3 14  4  0
  4  5  1  0
  4 18  2  0
  6 12  1  0
  6 17  4  0
  6 23  4  0
  7  9  1  0
  7 13  4  0
  7 19  4  0
  9 20  1  0
 10 19  4  0
 11 25  4  0
 13 14  4  0
 15 16  4  0
 15 17  4  0
 15 21  4  0
 16 24  1  0
 16 25  4  0
 20 24  1  0
 20 26  2  0
 21 23  4  0
 22 23  1  0
M  END
$$$$

 Created by Python create_sdf_string function

 26 28  0  0  0  0  0  0  0  0999 V2000
   12.4616    8.6700   19.4180 N   0  0  0  0  0  0  0  0  0  0  0  0
   11.8329   10.8148   18.6769 N   0  0  0  0  0  0  0  0  0  0  0  0
    6.1021    2.5564   21.0678 C   0  0  0  0  0  0  0  0  0  0  0  0
   10.9097   11.8051   18.4804 C   0  0  0  0  0  0  0  0  0  0  0  0
   11.2280   12.9135   17.5669 C   0  0  0  0  0  0  0  0  0  0  0  0
   12.3782    5.4231   20.7777 C   0  0  0  0  0  0  0  0  0  0  0  0
    7.7365    4.6508   21.6987 C   0  0  0  0  0  0  0  0  0  0  0  0
   13.0186   11.0102   18.0020 C   0  0  0  0  0  0  0  0  0  0  0  0
    8.6628    5.7088   21.8871 N   0  0  0  0  0  0  0  0  0  0  0  0
    5.6516    3.5258   21.9140 C   0  0  0  0  0  0  0  0  0  0  0  0
   11.5863    9.6815   19.4539 C   0  0  0  0  0  0  0  0  0  0  0  0
   12.9648    4.1543   20.9205 C   0  0  0  0  0  0  0  0  0  0  0  0
    8.2089    3.6265   20.8929 C   0  0  0  0  0  0  0  0  0  0  0  0
    7.3827    2.5724   20.5432 C   0  0  0  0  0  0  0  0  0  0  0  0
   11.1529    7.2750   20.8025 C   0  0  0  0  0  0  0  0  0  0  0  0
   10.2573    8.3215   20.9827 C   0  0  0  0  0  0  0  0  0  0  0  0
   11.1606    5.9378   21.2366 N   0  0  0  0  0  0  0  0  0  0  0  0
    9.8932   11.6736   19.0677 O   0  0  0  0  0  0  0  0  0  0  0  0
    6.4470    4.5850   22.2321 C   0  0  0  0  0  0  0  0  0  0  0  0
    8.4619    6.9895   22.2968 C   0  0  0  0  0  0  0  0  0  0  0  0
   12.2747    7.5102   20.0420 C   0  0  0  0  0  0  0  0  0  0  0  0
   14.2544    6.2142   19.4191 C   0  0  0  0  0  0  0  0  0  0  0  0
   13.0695    6.3705   20.0375 N   0  0  0  0  0  0  0  0  0  0  0  0
    9.1913    8.0876   21.8361 N   0  0  0  0  0  0  0  0  0  0  0  0
   10.4739    9.4813   20.2889 C   0  0  0  0  0  0  0  0  0  0  0  0
    7.5551    7.1270   23.1200 O   0  0  0  0  0  0  0  0  0  0  0  0
  1 11  4  0
  1 21  4  0
  2  4  1  0
  2  8  1  0
  2 11  1  0
  3 10  4  0
  3 14  4  0
  4  5  1  0
  4 18  2  0
  6 12  1  0
  6 17  4  0
  6 23  4  0
  7  9  1  0
  7 13  4  0
  7 19  4  0
  9 20  1  0
 10 19  4  0
 11 25  4  0
 13 14  4  0
 15 16  4  0
 15 17  4  0
 15 21  4  0
 16 24  1  0
 16 25  4  0
 20 24  1  0
 20 26  2  0
 21 23  4  0
 22 23  1  0
M  END
$$$$

 Created by Python create_sdf_string function

 26 28  0  0  0  0  0  0  0  0999 V2000
   12.4616    8.6700   19.4180 N   0  0  0  0  0  0  0  0  0  0  0  0
   11.8329   10.8148   18.6769 N   0  0  0  0  0  0  0  0  0  0  0  0
    6.1021    2.5564   21.0678 C   0  0  0  0  0  0  0  0  0  0  0  0
   10.9097   11.8051   18.4804 C   0  0  0  0  0  0  0  0  0  0  0  0
   11.2280   12.9135   17.5669 C   0  0  0  0  0  0  0  0  0  0  0  0
   12.3782    5.4231   20.7777 C   0  0  0  0  0  0  0  0  0  0  0  0
    7.7365    4.6508   21.6987 C   0  0  0  0  0  0  0  0  0  0  0  0
   13.0186   11.0102   18.0020 C   0  0  0  0  0  0  0  0  0  0  0  0
    8.6628    5.7088   21.8871 N   0  0  0  0  0  0  0  0  0  0  0  0
    5.6516    3.5258   21.9140 C   0  0  0  0  0  0  0  0  0  0  0  0
   11.5863    9.6815   19.4539 C   0  0  0  0  0  0  0  0  0  0  0  0
   12.9648    4.1543   20.9205 C   0  0  0  0  0  0  0  0  0  0  0  0
    8.2089    3.6265   20.8929 C   0  0  0  0  0  0  0  0  0  0  0  0
    7.3827    2.5724   20.5432 C   0  0  0  0  0  0  0  0  0  0  0  0
   11.1529    7.2750   20.8025 C   0  0  0  0  0  0  0  0  0  0  0  0
   10.2573    8.3215   20.9827 C   0  0  0  0  0  0  0  0  0  0  0  0
   11.1606    5.9378   21.2366 N   0  0  0  0  0  0  0  0  0  0  0  0
    9.8932   11.6736   19.0677 O   0  0  0  0  0  0  0  0  0  0  0  0
    6.4470    4.5850   22.2321 C   0  0  0  0  0  0  0  0  0  0  0  0
    8.4619    6.9895   22.2968 C   0  0  0  0  0  0  0  0  0  0  0  0
   12.2747    7.5102   20.0420 C   0  0  0  0  0  0  0  0  0  0  0  0
   14.2544    6.2142   19.4191 C   0  0  0  0  0  0  0  0  0  0  0  0
   13.0695    6.3705   20.0375 N   0  0  0  0  0  0  0  0  0  0  0  0
    9.1913    8.0876   21.8361 N   0  0  0  0  0  0  0  0  0  0  0  0
   10.4739    9.4813   20.2889 C   0  0  0  0  0  0  0  0  0  0  0  0
    7.5551    7.1270   23.1200 O   0  0  0  0  0  0  0  0  0  0  0  0
  1 11  4  0
  1 21  4  0
  2  4  1  0
  2  8  1  0
  2 11  1  0
  3 10  4  0
  3 14  4  0
  4  5  1  0
  4 18  2  0
  6 12  1  0
  6 17  4  0
  6 23  4  0
  7  9  1  0
  7 13  4  0
  7 19  4  0
  9 20  1  0
 10 19  4  0
 11 25  4  0
 13 14  4  0
 15 16  4  0
 15 17  4  0
 15 21  4  0
 16 24  1  0
 16 25  4  0
 20 24  1  0
 20 26  2  0
 21 23  4  0
 22 23  1  0
M  END
$$$$

 Created by Python create_sdf_string function

 26 28  0  0  0  0  0  0  0  0999 V2000
   12.4616    8.6700   19.4180 N   0  0  0  0  0  0  0  0  0  0  0  0
   11.8329   10.8148   18.6769 N   0  0  0  0  0  0  0  0  0  0  0  0
    6.1021    2.5564   21.0678 C   0  0  0  0  0  0  0  0  0  0  0  0
   10.9097   11.8051   18.4804 C   0  0  0  0  0  0  0  0  0  0  0  0
   11.2280   12.9135   17.5669 C   0  0  0  0  0  0  0  0  0  0  0  0
   12.3782    5.4231   20.7777 C   0  0  0  0  0  0  0  0  0  0  0  0
    7.7365    4.6508   21.6987 C   0  0  0  0  0  0  0  0  0  0  0  0
   13.0186   11.0102   18.0020 C   0  0  0  0  0  0  0  0  0  0  0  0
    8.6628    5.7088   21.8871 N   0  0  0  0  0  0  0  0  0  0  0  0
    5.6516    3.5258   21.9140 C   0  0  0  0  0  0  0  0  0  0  0  0
   11.5863    9.6815   19.4539 C   0  0  0  0  0  0  0  0  0  0  0  0
   12.9648    4.1543   20.9205 C   0  0  0  0  0  0  0  0  0  0  0  0
    8.2089    3.6265   20.8929 C   0  0  0  0  0  0  0  0  0  0  0  0
    7.3827    2.5724   20.5432 C   0  0  0  0  0  0  0  0  0  0  0  0
   11.1529    7.2750   20.8025 C   0  0  0  0  0  0  0  0  0  0  0  0
   10.2573    8.3215   20.9827 C   0  0  0  0  0  0  0  0  0  0  0  0
   11.1606    5.9378   21.2366 N   0  0  0  0  0  0  0  0  0  0  0  0
    9.8932   11.6736   19.0677 O   0  0  0  0  0  0  0  0  0  0  0  0
    6.4470    4.5850   22.2321 C   0  0  0  0  0  0  0  0  0  0  0  0
    8.4619    6.9895   22.2968 C   0  0  0  0  0  0  0  0  0  0  0  0
   12.2747    7.5102   20.0420 C   0  0  0  0  0  0  0  0  0  0  0  0
   14.2544    6.2142   19.4191 C   0  0  0  0  0  0  0  0  0  0  0  0
   13.0695    6.3705   20.0375 N   0  0  0  0  0  0  0  0  0  0  0  0
    9.1913    8.0876   21.8361 N   0  0  0  0  0  0  0  0  0  0  0  0
   10.4739    9.4813   20.2889 C   0  0  0  0  0  0  0  0  0  0  0  0
    7.5551    7.1270   23.1200 O   0  0  0  0  0  0  0  0  0  0  0  0
  1 11  4  0
  1 21  4  0
  2  4  1  0
  2  8  1  0
  2 11  1  0
  3 10  4  0
  3 14  4  0
  4  5  1  0
  4 18  2  0
  6 12  1  0
  6 17  4  0
  6 23  4  0
  7  9  1  0
  7 13  4  0
  7 19  4  0
  9 20  1  0
 10 19  4  0
 11 25  4  0
 13 14  4  0
 15 16  4  0
 15 17  4  0
 15 21  4  0
 16 24  1  0
 16 25  4  0
 20 24  1  0
 20 26  2  0
 21 23  4  0
 22 23  1  0
M  END
$$$$

 Created by Python create_sdf_string function

 26 28  0  0  0  0  0  0  0  0999 V2000
   12.4616    8.6700   19.4180 N   0  0  0  0  0  0  0  0  0  0  0  0
   11.8329   10.8148   18.6769 N   0  0  0  0  0  0  0  0  0  0  0  0
    6.1021    2.5564   21.0678 C   0  0  0  0  0  0  0  0  0  0  0  0
   10.9097   11.8051   18.4804 C   0  0  0  0  0  0  0  0  0  0  0  0
   11.2280   12.9135   17.5669 C   0  0  0  0  0  0  0  0  0  0  0  0
   12.3782    5.4231   20.7777 C   0  0  0  0  0  0  0  0  0  0  0  0
    7.7365    4.6508   21.6987 C   0  0  0  0  0  0  0  0  0  0  0  0
   13.0186   11.0102   18.0020 C   0  0  0  0  0  0  0  0  0  0  0  0
    8.6628    5.7088   21.8871 N   0  0  0  0  0  0  0  0  0  0  0  0
    5.6516    3.5258   21.9140 C   0  0  0  0  0  0  0  0  0  0  0  0
   11.5863    9.6815   19.4539 C   0  0  0  0  0  0  0  0  0  0  0  0
   12.9648    4.1543   20.9205 C   0  0  0  0  0  0  0  0  0  0  0  0
    8.2089    3.6265   20.8929 C   0  0  0  0  0  0  0  0  0  0  0  0
    7.3827    2.5724   20.5432 C   0  0  0  0  0  0  0  0  0  0  0  0
   11.1529    7.2750   20.8025 C   0  0  0  0  0  0  0  0  0  0  0  0
   10.2573    8.3215   20.9827 C   0  0  0  0  0  0  0  0  0  0  0  0
   11.1606    5.9378   21.2366 N   0  0  0  0  0  0  0  0  0  0  0  0
    9.8932   11.6736   19.0677 O   0  0  0  0  0  0  0  0  0  0  0  0
    6.4470    4.5850   22.2321 C   0  0  0  0  0  0  0  0  0  0  0  0
    8.4619    6.9895   22.2968 C   0  0  0  0  0  0  0  0  0  0  0  0
   12.2747    7.5102   20.0420 C   0  0  0  0  0  0  0  0  0  0  0  0
   14.2544    6.2142   19.4191 C   0  0  0  0  0  0  0  0  0  0  0  0
   13.0695    6.3705   20.0375 N   0  0  0  0  0  0  0  0  0  0  0  0
    9.1913    8.0876   21.8361 N   0  0  0  0  0  0  0  0  0  0  0  0
   10.4739    9.4813   20.2889 C   0  0  0  0  0  0  0  0  0  0  0  0
    7.5551    7.1270   23.1200 O   0  0  0  0  0  0  0  0  0  0  0  0
  1 11  4  0
  1 21  4  0
  2  4  1  0
  2  8  1  0
  2 11  1  0
  3 10  4  0
  3 14  4  0
  4  5  1  0
  4 18  2  0
  6 12  1  0
  6 17  4  0
  6 23  4  0
  7  9  1  0
  7 13  4  0
  7 19  4  0
  9 20  1  0
 10 19  4  0
 11 25  4  0
 13 14  4  0
 15 16  4  0
 15 17  4  0
 15 21  4  0
 16 24  1  0
 16 25  4  0
 20 24  1  0
 20 26  2  0
 21 23  4  0
 22 23  1  0
M  END
$$$$

 Created by Python create_sdf_string function

 26 28  0  0  0  0  0  0  0  0999 V2000
   12.4616    8.6700   19.4180 N   0  0  0  0  0  0  0  0  0  0  0  0
   11.8329   10.8148   18.6769 N   0  0  0  0  0  0  0  0  0  0  0  0
    6.1021    2.5564   21.0678 C   0  0  0  0  0  0  0  0  0  0  0  0
   10.9097   11.8051   18.4804 C   0  0  0  0  0  0  0  0  0  0  0  0
   11.2280   12.9135   17.5669 C   0  0  0  0  0  0  0  0  0  0  0  0
   12.3782    5.4231   20.7777 C   0  0  0  0  0  0  0  0  0  0  0  0
    7.7365    4.6508   21.6987 C   0  0  0  0  0  0  0  0  0  0  0  0
   13.0186   11.0102   18.0020 C   0  0  0  0  0  0  0  0  0  0  0  0
    8.6628    5.7088   21.8871 N   0  0  0  0  0  0  0  0  0  0  0  0
    5.6516    3.5258   21.9140 C   0  0  0  0  0  0  0  0  0  0  0  0
   11.5863    9.6815   19.4539 C   0  0  0  0  0  0  0  0  0  0  0  0
   12.9648    4.1543   20.9205 C   0  0  0  0  0  0  0  0  0  0  0  0
    8.2089    3.6265   20.8929 C   0  0  0  0  0  0  0  0  0  0  0  0
    7.3827    2.5724   20.5432 C   0  0  0  0  0  0  0  0  0  0  0  0
   11.1529    7.2750   20.8025 C   0  0  0  0  0  0  0  0  0  0  0  0
   10.2573    8.3215   20.9827 C   0  0  0  0  0  0  0  0  0  0  0  0
   11.1606    5.9378   21.2366 N   0  0  0  0  0  0  0  0  0  0  0  0
    9.8932   11.6736   19.0677 O   0  0  0  0  0  0  0  0  0  0  0  0
    6.4470    4.5850   22.2321 C   0  0  0  0  0  0  0  0  0  0  0  0
    8.4619    6.9895   22.2968 C   0  0  0  0  0  0  0  0  0  0  0  0
   12.2747    7.5102   20.0420 C   0  0  0  0  0  0  0  0  0  0  0  0
   14.2544    6.2142   19.4191 C   0  0  0  0  0  0  0  0  0  0  0  0
   13.0695    6.3705   20.0375 N   0  0  0  0  0  0  0  0  0  0  0  0
    9.1913    8.0876   21.8361 N   0  0  0  0  0  0  0  0  0  0  0  0
   10.4739    9.4813   20.2889 C   0  0  0  0  0  0  0  0  0  0  0  0
    7.5551    7.1270   23.1200 O   0  0  0  0  0  0  0  0  0  0  0  0
  1 11  4  0
  1 21  4  0
  2  4  1  0
  2  8  1  0
  2 11  1  0
  3 10  4  0
  3 14  4  0
  4  5  1  0
  4 18  2  0
  6 12  1  0
  6 17  4  0
  6 23  4  0
  7  9  1  0
  7 13  4  0
  7 19  4  0
  9 20  1  0
 10 19  4  0
 11 25  4  0
 13 14  4  0
 15 16  4  0
 15 17  4  0
 15 21  4  0
 16 24  1  0
 16 25  4  0
 20 24  1  0
 20 26  2  0
 21 23  4  0
 22 23  1  0
M  END
$$$$

 Created by Python create_sdf_string function

 26 28  0  0  0  0  0  0  0  0999 V2000
   12.4616    8.6700   19.4180 N   0  0  0  0  0  0  0  0  0  0  0  0
   11.8329   10.8148   18.6769 N   0  0  0  0  0  0  0  0  0  0  0  0
    6.1021    2.5564   21.0678 C   0  0  0  0  0  0  0  0  0  0  0  0
   10.9097   11.8051   18.4804 C   0  0  0  0  0  0  0  0  0  0  0  0
   11.2280   12.9135   17.5669 C   0  0  0  0  0  0  0  0  0  0  0  0
   12.3782    5.4231   20.7777 C   0  0  0  0  0  0  0  0  0  0  0  0
    7.7365    4.6508   21.6987 C   0  0  0  0  0  0  0  0  0  0  0  0
   13.0186   11.0102   18.0020 C   0  0  0  0  0  0  0  0  0  0  0  0
    8.6628    5.7088   21.8871 N   0  0  0  0  0  0  0  0  0  0  0  0
    5.6516    3.5258   21.9140 C   0  0  0  0  0  0  0  0  0  0  0  0
   11.5863    9.6815   19.4539 C   0  0  0  0  0  0  0  0  0  0  0  0
   12.9648    4.1543   20.9205 C   0  0  0  0  0  0  0  0  0  0  0  0
    8.2089    3.6265   20.8929 C   0  0  0  0  0  0  0  0  0  0  0  0
    7.3827    2.5724   20.5432 C   0  0  0  0  0  0  0  0  0  0  0  0
   11.1529    7.2750   20.8025 C   0  0  0  0  0  0  0  0  0  0  0  0
   10.2573    8.3215   20.9827 C   0  0  0  0  0  0  0  0  0  0  0  0
   11.1606    5.9378   21.2366 N   0  0  0  0  0  0  0  0  0  0  0  0
    9.8932   11.6736   19.0677 O   0  0  0  0  0  0  0  0  0  0  0  0
    6.4470    4.5850   22.2321 C   0  0  0  0  0  0  0  0  0  0  0  0
    8.4619    6.9895   22.2968 C   0  0  0  0  0  0  0  0  0  0  0  0
   12.2747    7.5102   20.0420 C   0  0  0  0  0  0  0  0  0  0  0  0
   14.2544    6.2142   19.4191 C   0  0  0  0  0  0  0  0  0  0  0  0
   13.0695    6.3705   20.0375 N   0  0  0  0  0  0  0  0  0  0  0  0
    9.1913    8.0876   21.8361 N   0  0  0  0  0  0  0  0  0  0  0  0
   10.4739    9.4813   20.2889 C   0  0  0  0  0  0  0  0  0  0  0  0
    7.5551    7.1270   23.1200 O   0  0  0  0  0  0  0  0  0  0  0  0
  1 11  4  0
  1 21  4  0
  2  4  1  0
  2  8  1  0
  2 11  1  0
  3 10  4  0
  3 14  4  0
  4  5  1  0
  4 18  2  0
  6 12  1  0
  6 17  4  0
  6 23  4  0
  7  9  1  0
  7 13  4  0
  7 19  4  0
  9 20  1  0
 10 19  4  0
 11 25  4  0
 13 14  4  0
 15 16  4  0
 15 17  4  0
 15 21  4  0
 16 24  1  0
 16 25  4  0
 20 24  1  0
 20 26  2  0
 21 23  4  0
 22 23  1  0
M  END
$$$$

 Created by Python create_sdf_string function

 26 28  0  0  0  0  0  0  0  0999 V2000
   12.4616    8.6700   19.4180 N   0  0  0  0  0  0  0  0  0  0  0  0
   11.8329   10.8148   18.6769 N   0  0  0  0  0  0  0  0  0  0  0  0
    6.1021    2.5564   21.0678 C   0  0  0  0  0  0  0  0  0  0  0  0
   10.9097   11.8051   18.4804 C   0  0  0  0  0  0  0  0  0  0  0  0
   11.2280   12.9135   17.5669 C   0  0  0  0  0  0  0  0  0  0  0  0
   12.3782    5.4231   20.7777 C   0  0  0  0  0  0  0  0  0  0  0  0
    7.7365    4.6508   21.6987 C   0  0  0  0  0  0  0  0  0  0  0  0
   13.0186   11.0102   18.0020 C   0  0  0  0  0  0  0  0  0  0  0  0
    8.6628    5.7088   21.8871 N   0  0  0  0  0  0  0  0  0  0  0  0
    5.6516    3.5258   21.9140 C   0  0  0  0  0  0  0  0  0  0  0  0
   11.5863    9.6815   19.4539 C   0  0  0  0  0  0  0  0  0  0  0  0
   12.9648    4.1543   20.9205 C   0  0  0  0  0  0  0  0  0  0  0  0
    8.2089    3.6265   20.8929 C   0  0  0  0  0  0  0  0  0  0  0  0
    7.3827    2.5724   20.5432 C   0  0  0  0  0  0  0  0  0  0  0  0
   11.1529    7.2750   20.8025 C   0  0  0  0  0  0  0  0  0  0  0  0
   10.2573    8.3215   20.9827 C   0  0  0  0  0  0  0  0  0  0  0  0
   11.1606    5.9378   21.2366 N   0  0  0  0  0  0  0  0  0  0  0  0
    9.8932   11.6736   19.0677 O   0  0  0  0  0  0  0  0  0  0  0  0
    6.4470    4.5850   22.2321 C   0  0  0  0  0  0  0  0  0  0  0  0
    8.4619    6.9895   22.2968 C   0  0  0  0  0  0  0  0  0  0  0  0
   12.2747    7.5102   20.0420 C   0  0  0  0  0  0  0  0  0  0  0  0
   14.2544    6.2142   19.4191 C   0  0  0  0  0  0  0  0  0  0  0  0
   13.0695    6.3705   20.0375 N   0  0  0  0  0  0  0  0  0  0  0  0
    9.1913    8.0876   21.8361 N   0  0  0  0  0  0  0  0  0  0  0  0
   10.4739    9.4813   20.2889 C   0  0  0  0  0  0  0  0  0  0  0  0
    7.5551    7.1270   23.1200 O   0  0  0  0  0  0  0  0  0  0  0  0
  1 11  4  0
  1 21  4  0
  2  4  1  0
  2  8  1  0
  2 11  1  0
  3 10  4  0
  3 14  4  0
  4  5  1  0
  4 18  2  0
  6 12  1  0
  6 17  4  0
  6 23  4  0
  7  9  1  0
  7 13  4  0
  7 19  4  0
  9 20  1  0
 10 19  4  0
 11 25  4  0
 13 14  4  0
 15 16  4  0
 15 17  4  0
 15 21  4  0
 16 24  1  0
 16 25  4  0
 20 24  1  0
 20 26  2  0
 21 23  4  0
 22 23  1  0
M  END
$$$$

 Created by Python create_sdf_string function

 26 28  0  0  0  0  0  0  0  0999 V2000
   12.4616    8.6700   19.4180 N   0  0  0  0  0  0  0  0  0  0  0  0
   11.8329   10.8148   18.6769 N   0  0  0  0  0  0  0  0  0  0  0  0
    6.1021    2.5564   21.0678 C   0  0  0  0  0  0  0  0  0  0  0  0
   10.9097   11.8051   18.4804 C   0  0  0  0  0  0  0  0  0  0  0  0
   11.2280   12.9135   17.5669 C   0  0  0  0  0  0  0  0  0  0  0  0
   12.3782    5.4231   20.7777 C   0  0  0  0  0  0  0  0  0  0  0  0
    7.7365    4.6508   21.6987 C   0  0  0  0  0  0  0  0  0  0  0  0
   13.0186   11.0102   18.0020 C   0  0  0  0  0  0  0  0  0  0  0  0
    8.6628    5.7088   21.8871 N   0  0  0  0  0  0  0  0  0  0  0  0
    5.6516    3.5258   21.9140 C   0  0  0  0  0  0  0  0  0  0  0  0
   11.5863    9.6815   19.4539 C   0  0  0  0  0  0  0  0  0  0  0  0
   12.9648    4.1543   20.9205 C   0  0  0  0  0  0  0  0  0  0  0  0
    8.2089    3.6265   20.8929 C   0  0  0  0  0  0  0  0  0  0  0  0
    7.3827    2.5724   20.5432 C   0  0  0  0  0  0  0  0  0  0  0  0
   11.1529    7.2750   20.8025 C   0  0  0  0  0  0  0  0  0  0  0  0
   10.2573    8.3215   20.9827 C   0  0  0  0  0  0  0  0  0  0  0  0
   11.1606    5.9378   21.2366 N   0  0  0  0  0  0  0  0  0  0  0  0
    9.8932   11.6736   19.0677 O   0  0  0  0  0  0  0  0  0  0  0  0
    6.4470    4.5850   22.2321 C   0  0  0  0  0  0  0  0  0  0  0  0
    8.4619    6.9895   22.2968 C   0  0  0  0  0  0  0  0  0  0  0  0
   12.2747    7.5102   20.0420 C   0  0  0  0  0  0  0  0  0  0  0  0
   14.2544    6.2142   19.4191 C   0  0  0  0  0  0  0  0  0  0  0  0
   13.0695    6.3705   20.0375 N   0  0  0  0  0  0  0  0  0  0  0  0
    9.1913    8.0876   21.8361 N   0  0  0  0  0  0  0  0  0  0  0  0
   10.4739    9.4813   20.2889 C   0  0  0  0  0  0  0  0  0  0  0  0
    7.5551    7.1270   23.1200 O   0  0  0  0  0  0  0  0  0  0  0  0
  1 11  4  0
  1 21  4  0
  2  4  1  0
  2  8  1  0
  2 11  1  0
  3 10  4  0
  3 14  4  0
  4  5  1  0
  4 18  2  0
  6 12  1  0
  6 17  4  0
  6 23  4  0
  7  9  1  0
  7 13  4  0
  7 19  4  0
  9 20  1  0
 10 19  4  0
 11 25  4  0
 13 14  4  0
 15 16  4  0
 15 17  4  0
 15 21  4  0
 16 24  1  0
 16 25  4  0
 20 24  1  0
 20 26  2  0
 21 23  4  0
 22 23  1  0
M  END
$$$$

 Created by Python create_sdf_string function

 26 28  0  0  0  0  0  0  0  0999 V2000
   12.4616    8.6700   19.4180 N   0  0  0  0  0  0  0  0  0  0  0  0
   11.8329   10.8148   18.6769 N   0  0  0  0  0  0  0  0  0  0  0  0
    6.1021    2.5564   21.0678 C   0  0  0  0  0  0  0  0  0  0  0  0
   10.9097   11.8051   18.4804 C   0  0  0  0  0  0  0  0  0  0  0  0
   11.2280   12.9135   17.5669 C   0  0  0  0  0  0  0  0  0  0  0  0
   12.3782    5.4231   20.7777 C   0  0  0  0  0  0  0  0  0  0  0  0
    7.7365    4.6508   21.6987 C   0  0  0  0  0  0  0  0  0  0  0  0
   13.0186   11.0102   18.0020 C   0  0  0  0  0  0  0  0  0  0  0  0
    8.6628    5.7088   21.8871 N   0  0  0  0  0  0  0  0  0  0  0  0
    5.6516    3.5258   21.9140 C   0  0  0  0  0  0  0  0  0  0  0  0
   11.5863    9.6815   19.4539 C   0  0  0  0  0  0  0  0  0  0  0  0
   12.9648    4.1543   20.9205 C   0  0  0  0  0  0  0  0  0  0  0  0
    8.2089    3.6265   20.8929 C   0  0  0  0  0  0  0  0  0  0  0  0
    7.3827    2.5724   20.5432 C   0  0  0  0  0  0  0  0  0  0  0  0
   11.1529    7.2750   20.8025 C   0  0  0  0  0  0  0  0  0  0  0  0
   10.2573    8.3215   20.9827 C   0  0  0  0  0  0  0  0  0  0  0  0
   11.1606    5.9378   21.2366 N   0  0  0  0  0  0  0  0  0  0  0  0
    9.8932   11.6736   19.0677 O   0  0  0  0  0  0  0  0  0  0  0  0
    6.4470    4.5850   22.2321 C   0  0  0  0  0  0  0  0  0  0  0  0
    8.4619    6.9895   22.2968 C   0  0  0  0  0  0  0  0  0  0  0  0
   12.2747    7.5102   20.0420 C   0  0  0  0  0  0  0  0  0  0  0  0
   14.2544    6.2142   19.4191 C   0  0  0  0  0  0  0  0  0  0  0  0
   13.0695    6.3705   20.0375 N   0  0  0  0  0  0  0  0  0  0  0  0
    9.1913    8.0876   21.8361 N   0  0  0  0  0  0  0  0  0  0  0  0
   10.4739    9.4813   20.2889 C   0  0  0  0  0  0  0  0  0  0  0  0
    7.5551    7.1270   23.1200 O   0  0  0  0  0  0  0  0  0  0  0  0
  1 11  4  0
  1 21  4  0
  2  4  1  0
  2  8  1  0
  2 11  1  0
  3 10  4  0
  3 14  4  0
  4  5  1  0
  4 18  2  0
  6 12  1  0
  6 17  4  0
  6 23  4  0
  7  9  1  0
  7 13  4  0
  7 19  4  0
  9 20  1  0
 10 19  4  0
 11 25  4  0
 13 14  4  0
 15 16  4  0
 15 17  4  0
 15 21  4  0
 16 24  1  0
 16 25  4  0
 20 24  1  0
 20 26  2  0
 21 23  4  0
 22 23  1  0
M  END
$$$$

 Created by Python create_sdf_string function

 26 28  0  0  0  0  0  0  0  0999 V2000
   12.4616    8.6700   19.4180 N   0  0  0  0  0  0  0  0  0  0  0  0
   11.8329   10.8148   18.6769 N   0  0  0  0  0  0  0  0  0  0  0  0
    6.1021    2.5564   21.0678 C   0  0  0  0  0  0  0  0  0  0  0  0
   10.9097   11.8051   18.4804 C   0  0  0  0  0  0  0  0  0  0  0  0
   11.2280   12.9135   17.5669 C   0  0  0  0  0  0  0  0  0  0  0  0
   12.3782    5.4231   20.7777 C   0  0  0  0  0  0  0  0  0  0  0  0
    7.7365    4.6508   21.6987 C   0  0  0  0  0  0  0  0  0  0  0  0
   13.0186   11.0102   18.0020 C   0  0  0  0  0  0  0  0  0  0  0  0
    8.6628    5.7088   21.8871 N   0  0  0  0  0  0  0  0  0  0  0  0
    5.6516    3.5258   21.9140 C   0  0  0  0  0  0  0  0  0  0  0  0
   11.5863    9.6815   19.4539 C   0  0  0  0  0  0  0  0  0  0  0  0
   12.9648    4.1543   20.9205 C   0  0  0  0  0  0  0  0  0  0  0  0
    8.2089    3.6265   20.8929 C   0  0  0  0  0  0  0  0  0  0  0  0
    7.3827    2.5724   20.5432 C   0  0  0  0  0  0  0  0  0  0  0  0
   11.1529    7.2750   20.8025 C   0  0  0  0  0  0  0  0  0  0  0  0
   10.2573    8.3215   20.9827 C   0  0  0  0  0  0  0  0  0  0  0  0
   11.1606    5.9378   21.2366 N   0  0  0  0  0  0  0  0  0  0  0  0
    9.8932   11.6736   19.0677 O   0  0  0  0  0  0  0  0  0  0  0  0
    6.4470    4.5850   22.2321 C   0  0  0  0  0  0  0  0  0  0  0  0
    8.4619    6.9895   22.2968 C   0  0  0  0  0  0  0  0  0  0  0  0
   12.2747    7.5102   20.0420 C   0  0  0  0  0  0  0  0  0  0  0  0
   14.2544    6.2142   19.4191 C   0  0  0  0  0  0  0  0  0  0  0  0
   13.0695    6.3705   20.0375 N   0  0  0  0  0  0  0  0  0  0  0  0
    9.1913    8.0876   21.8361 N   0  0  0  0  0  0  0  0  0  0  0  0
   10.4739    9.4813   20.2889 C   0  0  0  0  0  0  0  0  0  0  0  0
    7.5551    7.1270   23.1200 O   0  0  0  0  0  0  0  0  0  0  0  0
  1 11  4  0
  1 21  4  0
  2  4  1  0
  2  8  1  0
  2 11  1  0
  3 10  4  0
  3 14  4  0
  4  5  1  0
  4 18  2  0
  6 12  1  0
  6 17  4  0
  6 23  4  0
  7  9  1  0
  7 13  4  0
  7 19  4  0
  9 20  1  0
 10 19  4  0
 11 25  4  0
 13 14  4  0
 15 16  4  0
 15 17  4  0
 15 21  4  0
 16 24  1  0
 16 25  4  0
 20 24  1  0
 20 26  2  0
 21 23  4  0
 22 23  1  0
M  END
$$$$

 Created by Python create_sdf_string function

 26 28  0  0  0  0  0  0  0  0999 V2000
   12.4616    8.6700   19.4180 N   0  0  0  0  0  0  0  0  0  0  0  0
   11.8329   10.8148   18.6769 N   0  0  0  0  0  0  0  0  0  0  0  0
    6.1021    2.5564   21.0678 C   0  0  0  0  0  0  0  0  0  0  0  0
   10.9097   11.8051   18.4804 C   0  0  0  0  0  0  0  0  0  0  0  0
   11.2280   12.9135   17.5669 C   0  0  0  0  0  0  0  0  0  0  0  0
   12.3782    5.4231   20.7777 C   0  0  0  0  0  0  0  0  0  0  0  0
    7.7365    4.6508   21.6987 C   0  0  0  0  0  0  0  0  0  0  0  0
   13.0186   11.0102   18.0020 C   0  0  0  0  0  0  0  0  0  0  0  0
    8.6628    5.7088   21.8871 N   0  0  0  0  0  0  0  0  0  0  0  0
    5.6516    3.5258   21.9140 C   0  0  0  0  0  0  0  0  0  0  0  0
   11.5863    9.6815   19.4539 C   0  0  0  0  0  0  0  0  0  0  0  0
   12.9648    4.1543   20.9205 C   0  0  0  0  0  0  0  0  0  0  0  0
    8.2089    3.6265   20.8929 C   0  0  0  0  0  0  0  0  0  0  0  0
    7.3827    2.5724   20.5432 C   0  0  0  0  0  0  0  0  0  0  0  0
   11.1529    7.2750   20.8025 C   0  0  0  0  0  0  0  0  0  0  0  0
   10.2573    8.3215   20.9827 C   0  0  0  0  0  0  0  0  0  0  0  0
   11.1606    5.9378   21.2366 N   0  0  0  0  0  0  0  0  0  0  0  0
    9.8932   11.6736   19.0677 O   0  0  0  0  0  0  0  0  0  0  0  0
    6.4470    4.5850   22.2321 C   0  0  0  0  0  0  0  0  0  0  0  0
    8.4619    6.9895   22.2968 C   0  0  0  0  0  0  0  0  0  0  0  0
   12.2747    7.5102   20.0420 C   0  0  0  0  0  0  0  0  0  0  0  0
   14.2544    6.2142   19.4191 C   0  0  0  0  0  0  0  0  0  0  0  0
   13.0695    6.3705   20.0375 N   0  0  0  0  0  0  0  0  0  0  0  0
    9.1913    8.0876   21.8361 N   0  0  0  0  0  0  0  0  0  0  0  0
   10.4739    9.4813   20.2889 C   0  0  0  0  0  0  0  0  0  0  0  0
    7.5551    7.1270   23.1200 O   0  0  0  0  0  0  0  0  0  0  0  0
  1 11  4  0
  1 21  4  0
  2  4  1  0
  2  8  1  0
  2 11  1  0
  3 10  4  0
  3 14  4  0
  4  5  1  0
  4 18  2  0
  6 12  1  0
  6 17  4  0
  6 23  4  0
  7  9  1  0
  7 13  4  0
  7 19  4  0
  9 20  1  0
 10 19  4  0
 11 25  4  0
 13 14  4  0
 15 16  4  0
 15 17  4  0
 15 21  4  0
 16 24  1  0
 16 25  4  0
 20 24  1  0
 20 26  2  0
 21 23  4  0
 22 23  1  0
M  END
$$$$

 Created by Python create_sdf_string function

 26 28  0  0  0  0  0  0  0  0999 V2000
   12.4616    8.6700   19.4180 N   0  0  0  0  0  0  0  0  0  0  0  0
   11.8329   10.8148   18.6769 N   0  0  0  0  0  0  0  0  0  0  0  0
    6.1021    2.5564   21.0678 C   0  0  0  0  0  0  0  0  0  0  0  0
   10.9097   11.8051   18.4804 C   0  0  0  0  0  0  0  0  0  0  0  0
   11.2280   12.9135   17.5669 C   0  0  0  0  0  0  0  0  0  0  0  0
   12.3782    5.4231   20.7777 C   0  0  0  0  0  0  0  0  0  0  0  0
    7.7365    4.6508   21.6987 C   0  0  0  0  0  0  0  0  0  0  0  0
   13.0186   11.0102   18.0020 C   0  0  0  0  0  0  0  0  0  0  0  0
    8.6628    5.7088   21.8871 N   0  0  0  0  0  0  0  0  0  0  0  0
    5.6516    3.5258   21.9140 C   0  0  0  0  0  0  0  0  0  0  0  0
   11.5863    9.6815   19.4539 C   0  0  0  0  0  0  0  0  0  0  0  0
   12.9648    4.1543   20.9205 C   0  0  0  0  0  0  0  0  0  0  0  0
    8.2089    3.6265   20.8929 C   0  0  0  0  0  0  0  0  0  0  0  0
    7.3827    2.5724   20.5432 C   0  0  0  0  0  0  0  0  0  0  0  0
   11.1529    7.2750   20.8025 C   0  0  0  0  0  0  0  0  0  0  0  0
   10.2573    8.3215   20.9827 C   0  0  0  0  0  0  0  0  0  0  0  0
   11.1606    5.9378   21.2366 N   0  0  0  0  0  0  0  0  0  0  0  0
    9.8932   11.6736   19.0677 O   0  0  0  0  0  0  0  0  0  0  0  0
    6.4470    4.5850   22.2321 C   0  0  0  0  0  0  0  0  0  0  0  0
    8.4619    6.9895   22.2968 C   0  0  0  0  0  0  0  0  0  0  0  0
   12.2747    7.5102   20.0420 C   0  0  0  0  0  0  0  0  0  0  0  0
   14.2544    6.2142   19.4191 C   0  0  0  0  0  0  0  0  0  0  0  0
   13.0695    6.3705   20.0375 N   0  0  0  0  0  0  0  0  0  0  0  0
    9.1913    8.0876   21.8361 N   0  0  0  0  0  0  0  0  0  0  0  0
   10.4739    9.4813   20.2889 C   0  0  0  0  0  0  0  0  0  0  0  0
    7.5551    7.1270   23.1200 O   0  0  0  0  0  0  0  0  0  0  0  0
  1 11  4  0
  1 21  4  0
  2  4  1  0
  2  8  1  0
  2 11  1  0
  3 10  4  0
  3 14  4  0
  4  5  1  0
  4 18  2  0
  6 12  1  0
  6 17  4  0
  6 23  4  0
  7  9  1  0
  7 13  4  0
  7 19  4  0
  9 20  1  0
 10 19  4  0
 11 25  4  0
 13 14  4  0
 15 16  4  0
 15 17  4  0
 15 21  4  0
 16 24  1  0
 16 25  4  0
 20 24  1  0
 20 26  2  0
 21 23  4  0
 22 23  1  0
M  END
$$$$

 Created by Python create_sdf_string function

 26 28  0  0  0  0  0  0  0  0999 V2000
   12.4616    8.6700   19.4180 N   0  0  0  0  0  0  0  0  0  0  0  0
   11.8329   10.8148   18.6769 N   0  0  0  0  0  0  0  0  0  0  0  0
    6.1021    2.5564   21.0678 C   0  0  0  0  0  0  0  0  0  0  0  0
   10.9097   11.8051   18.4804 C   0  0  0  0  0  0  0  0  0  0  0  0
   11.2280   12.9135   17.5669 C   0  0  0  0  0  0  0  0  0  0  0  0
   12.3782    5.4231   20.7777 C   0  0  0  0  0  0  0  0  0  0  0  0
    7.7365    4.6508   21.6987 C   0  0  0  0  0  0  0  0  0  0  0  0
   13.0186   11.0102   18.0020 C   0  0  0  0  0  0  0  0  0  0  0  0
    8.6628    5.7088   21.8871 N   0  0  0  0  0  0  0  0  0  0  0  0
    5.6516    3.5258   21.9140 C   0  0  0  0  0  0  0  0  0  0  0  0
   11.5863    9.6815   19.4539 C   0  0  0  0  0  0  0  0  0  0  0  0
   12.9648    4.1543   20.9205 C   0  0  0  0  0  0  0  0  0  0  0  0
    8.2089    3.6265   20.8929 C   0  0  0  0  0  0  0  0  0  0  0  0
    7.3827    2.5724   20.5432 C   0  0  0  0  0  0  0  0  0  0  0  0
   11.1529    7.2750   20.8025 C   0  0  0  0  0  0  0  0  0  0  0  0
   10.2573    8.3215   20.9827 C   0  0  0  0  0  0  0  0  0  0  0  0
   11.1606    5.9378   21.2366 N   0  0  0  0  0  0  0  0  0  0  0  0
    9.8932   11.6736   19.0677 O   0  0  0  0  0  0  0  0  0  0  0  0
    6.4470    4.5850   22.2321 C   0  0  0  0  0  0  0  0  0  0  0  0
    8.4619    6.9895   22.2968 C   0  0  0  0  0  0  0  0  0  0  0  0
   12.2747    7.5102   20.0420 C   0  0  0  0  0  0  0  0  0  0  0  0
   14.2544    6.2142   19.4191 C   0  0  0  0  0  0  0  0  0  0  0  0
   13.0695    6.3705   20.0375 N   0  0  0  0  0  0  0  0  0  0  0  0
    9.1913    8.0876   21.8361 N   0  0  0  0  0  0  0  0  0  0  0  0
   10.4739    9.4813   20.2889 C   0  0  0  0  0  0  0  0  0  0  0  0
    7.5551    7.1270   23.1200 O   0  0  0  0  0  0  0  0  0  0  0  0
  1 11  4  0
  1 21  4  0
  2  4  1  0
  2  8  1  0
  2 11  1  0
  3 10  4  0
  3 14  4  0
  4  5  1  0
  4 18  2  0
  6 12  1  0
  6 17  4  0
  6 23  4  0
  7  9  1  0
  7 13  4  0
  7 19  4  0
  9 20  1  0
 10 19  4  0
 11 25  4  0
 13 14  4  0
 15 16  4  0
 15 17  4  0
 15 21  4  0
 16 24  1  0
 16 25  4  0
 20 24  1  0
 20 26  2  0
 21 23  4  0
 22 23  1  0
M  END
$$$$

 Created by Python create_sdf_string function

 26 28  0  0  0  0  0  0  0  0999 V2000
   12.4616    8.6700   19.4180 N   0  0  0  0  0  0  0  0  0  0  0  0
   11.8329   10.8148   18.6769 N   0  0  0  0  0  0  0  0  0  0  0  0
    6.1021    2.5564   21.0678 C   0  0  0  0  0  0  0  0  0  0  0  0
   10.9097   11.8051   18.4804 C   0  0  0  0  0  0  0  0  0  0  0  0
   11.2280   12.9135   17.5669 C   0  0  0  0  0  0  0  0  0  0  0  0
   12.3782    5.4231   20.7777 C   0  0  0  0  0  0  0  0  0  0  0  0
    7.7365    4.6508   21.6987 C   0  0  0  0  0  0  0  0  0  0  0  0
   13.0186   11.0102   18.0020 C   0  0  0  0  0  0  0  0  0  0  0  0
    8.6628    5.7088   21.8871 N   0  0  0  0  0  0  0  0  0  0  0  0
    5.6516    3.5258   21.9140 C   0  0  0  0  0  0  0  0  0  0  0  0
   11.5863    9.6815   19.4539 C   0  0  0  0  0  0  0  0  0  0  0  0
   12.9648    4.1543   20.9205 C   0  0  0  0  0  0  0  0  0  0  0  0
    8.2089    3.6265   20.8929 C   0  0  0  0  0  0  0  0  0  0  0  0
    7.3827    2.5724   20.5432 C   0  0  0  0  0  0  0  0  0  0  0  0
   11.1529    7.2750   20.8025 C   0  0  0  0  0  0  0  0  0  0  0  0
   10.2573    8.3215   20.9827 C   0  0  0  0  0  0  0  0  0  0  0  0
   11.1606    5.9378   21.2366 N   0  0  0  0  0  0  0  0  0  0  0  0
    9.8932   11.6736   19.0677 O   0  0  0  0  0  0  0  0  0  0  0  0
    6.4470    4.5850   22.2321 C   0  0  0  0  0  0  0  0  0  0  0  0
    8.4619    6.9895   22.2968 C   0  0  0  0  0  0  0  0  0  0  0  0
   12.2747    7.5102   20.0420 C   0  0  0  0  0  0  0  0  0  0  0  0
   14.2544    6.2142   19.4191 C   0  0  0  0  0  0  0  0  0  0  0  0
   13.0695    6.3705   20.0375 N   0  0  0  0  0  0  0  0  0  0  0  0
    9.1913    8.0876   21.8361 N   0  0  0  0  0  0  0  0  0  0  0  0
   10.4739    9.4813   20.2889 C   0  0  0  0  0  0  0  0  0  0  0  0
    7.5551    7.1270   23.1200 O   0  0  0  0  0  0  0  0  0  0  0  0
  1 11  4  0
  1 21  4  0
  2  4  1  0
  2  8  1  0
  2 11  1  0
  3 10  4  0
  3 14  4  0
  4  5  1  0
  4 18  2  0
  6 12  1  0
  6 17  4  0
  6 23  4  0
  7  9  1  0
  7 13  4  0
  7 19  4  0
  9 20  1  0
 10 19  4  0
 11 25  4  0
 13 14  4  0
 15 16  4  0
 15 17  4  0
 15 21  4  0
 16 24  1  0
 16 25  4  0
 20 24  1  0
 20 26  2  0
 21 23  4  0
 22 23  1  0
M  END
$$$$

 Created by Python create_sdf_string function

 26 28  0  0  0  0  0  0  0  0999 V2000
   12.4616    8.6700   19.4180 N   0  0  0  0  0  0  0  0  0  0  0  0
   11.8329   10.8148   18.6769 N   0  0  0  0  0  0  0  0  0  0  0  0
    6.1021    2.5564   21.0678 C   0  0  0  0  0  0  0  0  0  0  0  0
   10.9097   11.8051   18.4804 C   0  0  0  0  0  0  0  0  0  0  0  0
   11.2280   12.9135   17.5669 C   0  0  0  0  0  0  0  0  0  0  0  0
   12.3782    5.4231   20.7777 C   0  0  0  0  0  0  0  0  0  0  0  0
    7.7365    4.6508   21.6987 C   0  0  0  0  0  0  0  0  0  0  0  0
   13.0186   11.0102   18.0020 C   0  0  0  0  0  0  0  0  0  0  0  0
    8.6628    5.7088   21.8871 N   0  0  0  0  0  0  0  0  0  0  0  0
    5.6516    3.5258   21.9140 C   0  0  0  0  0  0  0  0  0  0  0  0
   11.5863    9.6815   19.4539 C   0  0  0  0  0  0  0  0  0  0  0  0
   12.9648    4.1543   20.9205 C   0  0  0  0  0  0  0  0  0  0  0  0
    8.2089    3.6265   20.8929 C   0  0  0  0  0  0  0  0  0  0  0  0
    7.3827    2.5724   20.5432 C   0  0  0  0  0  0  0  0  0  0  0  0
   11.1529    7.2750   20.8025 C   0  0  0  0  0  0  0  0  0  0  0  0
   10.2573    8.3215   20.9827 C   0  0  0  0  0  0  0  0  0  0  0  0
   11.1606    5.9378   21.2366 N   0  0  0  0  0  0  0  0  0  0  0  0
    9.8932   11.6736   19.0677 O   0  0  0  0  0  0  0  0  0  0  0  0
    6.4470    4.5850   22.2321 C   0  0  0  0  0  0  0  0  0  0  0  0
    8.4619    6.9895   22.2968 C   0  0  0  0  0  0  0  0  0  0  0  0
   12.2747    7.5102   20.0420 C   0  0  0  0  0  0  0  0  0  0  0  0
   14.2544    6.2142   19.4191 C   0  0  0  0  0  0  0  0  0  0  0  0
   13.0695    6.3705   20.0375 N   0  0  0  0  0  0  0  0  0  0  0  0
    9.1913    8.0876   21.8361 N   0  0  0  0  0  0  0  0  0  0  0  0
   10.4739    9.4813   20.2889 C   0  0  0  0  0  0  0  0  0  0  0  0
    7.5551    7.1270   23.1200 O   0  0  0  0  0  0  0  0  0  0  0  0
  1 11  4  0
  1 21  4  0
  2  4  1  0
  2  8  1  0
  2 11  1  0
  3 10  4  0
  3 14  4  0
  4  5  1  0
  4 18  2  0
  6 12  1  0
  6 17  4  0
  6 23  4  0
  7  9  1  0
  7 13  4  0
  7 19  4  0
  9 20  1  0
 10 19  4  0
 11 25  4  0
 13 14  4  0
 15 16  4  0
 15 17  4  0
 15 21  4  0
 16 24  1  0
 16 25  4  0
 20 24  1  0
 20 26  2  0
 21 23  4  0
 22 23  1  0
M  END
$$$$

 Created by Python create_sdf_string function

 26 28  0  0  0  0  0  0  0  0999 V2000
   12.4616    8.6700   19.4180 N   0  0  0  0  0  0  0  0  0  0  0  0
   11.8329   10.8148   18.6769 N   0  0  0  0  0  0  0  0  0  0  0  0
    6.1021    2.5564   21.0678 C   0  0  0  0  0  0  0  0  0  0  0  0
   10.9097   11.8051   18.4804 C   0  0  0  0  0  0  0  0  0  0  0  0
   11.2280   12.9135   17.5669 C   0  0  0  0  0  0  0  0  0  0  0  0
   12.3782    5.4231   20.7777 C   0  0  0  0  0  0  0  0  0  0  0  0
    7.7365    4.6508   21.6987 C   0  0  0  0  0  0  0  0  0  0  0  0
   13.0186   11.0102   18.0020 C   0  0  0  0  0  0  0  0  0  0  0  0
    8.6628    5.7088   21.8871 N   0  0  0  0  0  0  0  0  0  0  0  0
    5.6516    3.5258   21.9140 C   0  0  0  0  0  0  0  0  0  0  0  0
   11.5863    9.6815   19.4539 C   0  0  0  0  0  0  0  0  0  0  0  0
   12.9648    4.1543   20.9205 C   0  0  0  0  0  0  0  0  0  0  0  0
    8.2089    3.6265   20.8929 C   0  0  0  0  0  0  0  0  0  0  0  0
    7.3827    2.5724   20.5432 C   0  0  0  0  0  0  0  0  0  0  0  0
   11.1529    7.2750   20.8025 C   0  0  0  0  0  0  0  0  0  0  0  0
   10.2573    8.3215   20.9827 C   0  0  0  0  0  0  0  0  0  0  0  0
   11.1606    5.9378   21.2366 N   0  0  0  0  0  0  0  0  0  0  0  0
    9.8932   11.6736   19.0677 O   0  0  0  0  0  0  0  0  0  0  0  0
    6.4470    4.5850   22.2321 C   0  0  0  0  0  0  0  0  0  0  0  0
    8.4619    6.9895   22.2968 C   0  0  0  0  0  0  0  0  0  0  0  0
   12.2747    7.5102   20.0420 C   0  0  0  0  0  0  0  0  0  0  0  0
   14.2544    6.2142   19.4191 C   0  0  0  0  0  0  0  0  0  0  0  0
   13.0695    6.3705   20.0375 N   0  0  0  0  0  0  0  0  0  0  0  0
    9.1913    8.0876   21.8361 N   0  0  0  0  0  0  0  0  0  0  0  0
   10.4739    9.4813   20.2889 C   0  0  0  0  0  0  0  0  0  0  0  0
    7.5551    7.1270   23.1200 O   0  0  0  0  0  0  0  0  0  0  0  0
  1 11  4  0
  1 21  4  0
  2  4  1  0
  2  8  1  0
  2 11  1  0
  3 10  4  0
  3 14  4  0
  4  5  1  0
  4 18  2  0
  6 12  1  0
  6 17  4  0
  6 23  4  0
  7  9  1  0
  7 13  4  0
  7 19  4  0
  9 20  1  0
 10 19  4  0
 11 25  4  0
 13 14  4  0
 15 16  4  0
 15 17  4  0
 15 21  4  0
 16 24  1  0
 16 25  4  0
 20 24  1  0
 20 26  2  0
 21 23  4  0
 22 23  1  0
M  END
$$$$

 Created by Python create_sdf_string function

 26 28  0  0  0  0  0  0  0  0999 V2000
   12.4616    8.6700   19.4180 N   0  0  0  0  0  0  0  0  0  0  0  0
   11.8329   10.8148   18.6769 N   0  0  0  0  0  0  0  0  0  0  0  0
    6.1021    2.5564   21.0678 C   0  0  0  0  0  0  0  0  0  0  0  0
   10.9097   11.8051   18.4804 C   0  0  0  0  0  0  0  0  0  0  0  0
   11.2280   12.9135   17.5669 C   0  0  0  0  0  0  0  0  0  0  0  0
   12.3782    5.4231   20.7777 C   0  0  0  0  0  0  0  0  0  0  0  0
    7.7365    4.6508   21.6987 C   0  0  0  0  0  0  0  0  0  0  0  0
   13.0186   11.0102   18.0020 C   0  0  0  0  0  0  0  0  0  0  0  0
    8.6628    5.7088   21.8871 N   0  0  0  0  0  0  0  0  0  0  0  0
    5.6516    3.5258   21.9140 C   0  0  0  0  0  0  0  0  0  0  0  0
   11.5863    9.6815   19.4539 C   0  0  0  0  0  0  0  0  0  0  0  0
   12.9648    4.1543   20.9205 C   0  0  0  0  0  0  0  0  0  0  0  0
    8.2089    3.6265   20.8929 C   0  0  0  0  0  0  0  0  0  0  0  0
    7.3827    2.5724   20.5432 C   0  0  0  0  0  0  0  0  0  0  0  0
   11.1529    7.2750   20.8025 C   0  0  0  0  0  0  0  0  0  0  0  0
   10.2573    8.3215   20.9827 C   0  0  0  0  0  0  0  0  0  0  0  0
   11.1606    5.9378   21.2366 N   0  0  0  0  0  0  0  0  0  0  0  0
    9.8932   11.6736   19.0677 O   0  0  0  0  0  0  0  0  0  0  0  0
    6.4470    4.5850   22.2321 C   0  0  0  0  0  0  0  0  0  0  0  0
    8.4619    6.9895   22.2968 C   0  0  0  0  0  0  0  0  0  0  0  0
   12.2747    7.5102   20.0420 C   0  0  0  0  0  0  0  0  0  0  0  0
   14.2544    6.2142   19.4191 C   0  0  0  0  0  0  0  0  0  0  0  0
   13.0695    6.3705   20.0375 N   0  0  0  0  0  0  0  0  0  0  0  0
    9.1913    8.0876   21.8361 N   0  0  0  0  0  0  0  0  0  0  0  0
   10.4739    9.4813   20.2889 C   0  0  0  0  0  0  0  0  0  0  0  0
    7.5551    7.1270   23.1200 O   0  0  0  0  0  0  0  0  0  0  0  0
  1 11  4  0
  1 21  4  0
  2  4  1  0
  2  8  1  0
  2 11  1  0
  3 10  4  0
  3 14  4  0
  4  5  1  0
  4 18  2  0
  6 12  1  0
  6 17  4  0
  6 23  4  0
  7  9  1  0
  7 13  4  0
  7 19  4  0
  9 20  1  0
 10 19  4  0
 11 25  4  0
 13 14  4  0
 15 16  4  0
 15 17  4  0
 15 21  4  0
 16 24  1  0
 16 25  4  0
 20 24  1  0
 20 26  2  0
 21 23  4  0
 22 23  1  0
M  END
$$$$

 Created by Python create_sdf_string function

 26 28  0  0  0  0  0  0  0  0999 V2000
   12.4616    8.6700   19.4180 N   0  0  0  0  0  0  0  0  0  0  0  0
   11.8329   10.8148   18.6769 N   0  0  0  0  0  0  0  0  0  0  0  0
    6.1021    2.5564   21.0678 C   0  0  0  0  0  0  0  0  0  0  0  0
   10.9097   11.8051   18.4804 C   0  0  0  0  0  0  0  0  0  0  0  0
   11.2280   12.9135   17.5669 C   0  0  0  0  0  0  0  0  0  0  0  0
   12.3782    5.4231   20.7777 C   0  0  0  0  0  0  0  0  0  0  0  0
    7.7365    4.6508   21.6987 C   0  0  0  0  0  0  0  0  0  0  0  0
   13.0186   11.0102   18.0020 C   0  0  0  0  0  0  0  0  0  0  0  0
    8.6628    5.7088   21.8871 N   0  0  0  0  0  0  0  0  0  0  0  0
    5.6516    3.5258   21.9140 C   0  0  0  0  0  0  0  0  0  0  0  0
   11.5863    9.6815   19.4539 C   0  0  0  0  0  0  0  0  0  0  0  0
   12.9648    4.1543   20.9205 C   0  0  0  0  0  0  0  0  0  0  0  0
    8.2089    3.6265   20.8929 C   0  0  0  0  0  0  0  0  0  0  0  0
    7.3827    2.5724   20.5432 C   0  0  0  0  0  0  0  0  0  0  0  0
   11.1529    7.2750   20.8025 C   0  0  0  0  0  0  0  0  0  0  0  0
   10.2573    8.3215   20.9827 C   0  0  0  0  0  0  0  0  0  0  0  0
   11.1606    5.9378   21.2366 N   0  0  0  0  0  0  0  0  0  0  0  0
    9.8932   11.6736   19.0677 O   0  0  0  0  0  0  0  0  0  0  0  0
    6.4470    4.5850   22.2321 C   0  0  0  0  0  0  0  0  0  0  0  0
    8.4619    6.9895   22.2968 C   0  0  0  0  0  0  0  0  0  0  0  0
   12.2747    7.5102   20.0420 C   0  0  0  0  0  0  0  0  0  0  0  0
   14.2544    6.2142   19.4191 C   0  0  0  0  0  0  0  0  0  0  0  0
   13.0695    6.3705   20.0375 N   0  0  0  0  0  0  0  0  0  0  0  0
    9.1913    8.0876   21.8361 N   0  0  0  0  0  0  0  0  0  0  0  0
   10.4739    9.4813   20.2889 C   0  0  0  0  0  0  0  0  0  0  0  0
    7.5551    7.1270   23.1200 O   0  0  0  0  0  0  0  0  0  0  0  0
  1 11  4  0
  1 21  4  0
  2  4  1  0
  2  8  1  0
  2 11  1  0
  3 10  4  0
  3 14  4  0
  4  5  1  0
  4 18  2  0
  6 12  1  0
  6 17  4  0
  6 23  4  0
  7  9  1  0
  7 13  4  0
  7 19  4  0
  9 20  1  0
 10 19  4  0
 11 25  4  0
 13 14  4  0
 15 16  4  0
 15 17  4  0
 15 21  4  0
 16 24  1  0
 16 25  4  0
 20 24  1  0
 20 26  2  0
 21 23  4  0
 22 23  1  0
M  END
$$$$

 Created by Python create_sdf_string function

 26 28  0  0  0  0  0  0  0  0999 V2000
   12.4616    8.6700   19.4180 N   0  0  0  0  0  0  0  0  0  0  0  0
   11.8329   10.8148   18.6769 N   0  0  0  0  0  0  0  0  0  0  0  0
    6.1021    2.5564   21.0678 C   0  0  0  0  0  0  0  0  0  0  0  0
   10.9097   11.8051   18.4804 C   0  0  0  0  0  0  0  0  0  0  0  0
   11.2280   12.9135   17.5669 C   0  0  0  0  0  0  0  0  0  0  0  0
   12.3782    5.4231   20.7777 C   0  0  0  0  0  0  0  0  0  0  0  0
    7.7365    4.6508   21.6987 C   0  0  0  0  0  0  0  0  0  0  0  0
   13.0186   11.0102   18.0020 C   0  0  0  0  0  0  0  0  0  0  0  0
    8.6628    5.7088   21.8871 N   0  0  0  0  0  0  0  0  0  0  0  0
    5.6516    3.5258   21.9140 C   0  0  0  0  0  0  0  0  0  0  0  0
   11.5863    9.6815   19.4539 C   0  0  0  0  0  0  0  0  0  0  0  0
   12.9648    4.1543   20.9205 C   0  0  0  0  0  0  0  0  0  0  0  0
    8.2089    3.6265   20.8929 C   0  0  0  0  0  0  0  0  0  0  0  0
    7.3827    2.5724   20.5432 C   0  0  0  0  0  0  0  0  0  0  0  0
   11.1529    7.2750   20.8025 C   0  0  0  0  0  0  0  0  0  0  0  0
   10.2573    8.3215   20.9827 C   0  0  0  0  0  0  0  0  0  0  0  0
   11.1606    5.9378   21.2366 N   0  0  0  0  0  0  0  0  0  0  0  0
    9.8932   11.6736   19.0677 O   0  0  0  0  0  0  0  0  0  0  0  0
    6.4470    4.5850   22.2321 C   0  0  0  0  0  0  0  0  0  0  0  0
    8.4619    6.9895   22.2968 C   0  0  0  0  0  0  0  0  0  0  0  0
   12.2747    7.5102   20.0420 C   0  0  0  0  0  0  0  0  0  0  0  0
   14.2544    6.2142   19.4191 C   0  0  0  0  0  0  0  0  0  0  0  0
   13.0695    6.3705   20.0375 N   0  0  0  0  0  0  0  0  0  0  0  0
    9.1913    8.0876   21.8361 N   0  0  0  0  0  0  0  0  0  0  0  0
   10.4739    9.4813   20.2889 C   0  0  0  0  0  0  0  0  0  0  0  0
    7.5551    7.1270   23.1200 O   0  0  0  0  0  0  0  0  0  0  0  0
  1 11  4  0
  1 21  4  0
  2  4  1  0
  2  8  1  0
  2 11  1  0
  3 10  4  0
  3 14  4  0
  4  5  1  0
  4 18  2  0
  6 12  1  0
  6 17  4  0
  6 23  4  0
  7  9  1  0
  7 13  4  0
  7 19  4  0
  9 20  1  0
 10 19  4  0
 11 25  4  0
 13 14  4  0
 15 16  4  0
 15 17  4  0
 15 21  4  0
 16 24  1  0
 16 25  4  0
 20 24  1  0
 20 26  2  0
 21 23  4  0
 22 23  1  0
M  END
$$$$

 Created by Python create_sdf_string function

 26 28  0  0  0  0  0  0  0  0999 V2000
   12.4616    8.6700   19.4180 N   0  0  0  0  0  0  0  0  0  0  0  0
   11.8329   10.8148   18.6769 N   0  0  0  0  0  0  0  0  0  0  0  0
    6.1021    2.5564   21.0678 C   0  0  0  0  0  0  0  0  0  0  0  0
   10.9097   11.8051   18.4804 C   0  0  0  0  0  0  0  0  0  0  0  0
   11.2280   12.9135   17.5669 C   0  0  0  0  0  0  0  0  0  0  0  0
   12.3782    5.4231   20.7777 C   0  0  0  0  0  0  0  0  0  0  0  0
    7.7365    4.6508   21.6987 C   0  0  0  0  0  0  0  0  0  0  0  0
   13.0186   11.0102   18.0020 C   0  0  0  0  0  0  0  0  0  0  0  0
    8.6628    5.7088   21.8871 N   0  0  0  0  0  0  0  0  0  0  0  0
    5.6516    3.5258   21.9140 C   0  0  0  0  0  0  0  0  0  0  0  0
   11.5863    9.6815   19.4539 C   0  0  0  0  0  0  0  0  0  0  0  0
   12.9648    4.1543   20.9205 C   0  0  0  0  0  0  0  0  0  0  0  0
    8.2089    3.6265   20.8929 C   0  0  0  0  0  0  0  0  0  0  0  0
    7.3827    2.5724   20.5432 C   0  0  0  0  0  0  0  0  0  0  0  0
   11.1529    7.2750   20.8025 C   0  0  0  0  0  0  0  0  0  0  0  0
   10.2573    8.3215   20.9827 C   0  0  0  0  0  0  0  0  0  0  0  0
   11.1606    5.9378   21.2366 N   0  0  0  0  0  0  0  0  0  0  0  0
    9.8932   11.6736   19.0677 O   0  0  0  0  0  0  0  0  0  0  0  0
    6.4470    4.5850   22.2321 C   0  0  0  0  0  0  0  0  0  0  0  0
    8.4619    6.9895   22.2968 C   0  0  0  0  0  0  0  0  0  0  0  0
   12.2747    7.5102   20.0420 C   0  0  0  0  0  0  0  0  0  0  0  0
   14.2544    6.2142   19.4191 C   0  0  0  0  0  0  0  0  0  0  0  0
   13.0695    6.3705   20.0375 N   0  0  0  0  0  0  0  0  0  0  0  0
    9.1913    8.0876   21.8361 N   0  0  0  0  0  0  0  0  0  0  0  0
   10.4739    9.4813   20.2889 C   0  0  0  0  0  0  0  0  0  0  0  0
    7.5551    7.1270   23.1200 O   0  0  0  0  0  0  0  0  0  0  0  0
  1 11  4  0
  1 21  4  0
  2  4  1  0
  2  8  1  0
  2 11  1  0
  3 10  4  0
  3 14  4  0
  4  5  1  0
  4 18  2  0
  6 12  1  0
  6 17  4  0
  6 23  4  0
  7  9  1  0
  7 13  4  0
  7 19  4  0
  9 20  1  0
 10 19  4  0
 11 25  4  0
 13 14  4  0
 15 16  4  0
 15 17  4  0
 15 21  4  0
 16 24  1  0
 16 25  4  0
 20 24  1  0
 20 26  2  0
 21 23  4  0
 22 23  1  0
M  END
$$$$

 Created by Python create_sdf_string function

 26 28  0  0  0  0  0  0  0  0999 V2000
   12.4616    8.6700   19.4180 N   0  0  0  0  0  0  0  0  0  0  0  0
   11.8329   10.8148   18.6769 N   0  0  0  0  0  0  0  0  0  0  0  0
    6.1021    2.5564   21.0678 C   0  0  0  0  0  0  0  0  0  0  0  0
   10.9097   11.8051   18.4804 C   0  0  0  0  0  0  0  0  0  0  0  0
   11.2280   12.9135   17.5669 C   0  0  0  0  0  0  0  0  0  0  0  0
   12.3782    5.4231   20.7777 C   0  0  0  0  0  0  0  0  0  0  0  0
    7.7365    4.6508   21.6987 C   0  0  0  0  0  0  0  0  0  0  0  0
   13.0186   11.0102   18.0020 C   0  0  0  0  0  0  0  0  0  0  0  0
    8.6628    5.7088   21.8871 N   0  0  0  0  0  0  0  0  0  0  0  0
    5.6516    3.5258   21.9140 C   0  0  0  0  0  0  0  0  0  0  0  0
   11.5863    9.6815   19.4539 C   0  0  0  0  0  0  0  0  0  0  0  0
   12.9648    4.1543   20.9205 C   0  0  0  0  0  0  0  0  0  0  0  0
    8.2089    3.6265   20.8929 C   0  0  0  0  0  0  0  0  0  0  0  0
    7.3827    2.5724   20.5432 C   0  0  0  0  0  0  0  0  0  0  0  0
   11.1529    7.2750   20.8025 C   0  0  0  0  0  0  0  0  0  0  0  0
   10.2573    8.3215   20.9827 C   0  0  0  0  0  0  0  0  0  0  0  0
   11.1606    5.9378   21.2366 N   0  0  0  0  0  0  0  0  0  0  0  0
    9.8932   11.6736   19.0677 O   0  0  0  0  0  0  0  0  0  0  0  0
    6.4470    4.5850   22.2321 C   0  0  0  0  0  0  0  0  0  0  0  0
    8.4619    6.9895   22.2968 C   0  0  0  0  0  0  0  0  0  0  0  0
   12.2747    7.5102   20.0420 C   0  0  0  0  0  0  0  0  0  0  0  0
   14.2544    6.2142   19.4191 C   0  0  0  0  0  0  0  0  0  0  0  0
   13.0695    6.3705   20.0375 N   0  0  0  0  0  0  0  0  0  0  0  0
    9.1913    8.0876   21.8361 N   0  0  0  0  0  0  0  0  0  0  0  0
   10.4739    9.4813   20.2889 C   0  0  0  0  0  0  0  0  0  0  0  0
    7.5551    7.1270   23.1200 O   0  0  0  0  0  0  0  0  0  0  0  0
  1 11  4  0
  1 21  4  0
  2  4  1  0
  2  8  1  0
  2 11  1  0
  3 10  4  0
  3 14  4  0
  4  5  1  0
  4 18  2  0
  6 12  1  0
  6 17  4  0
  6 23  4  0
  7  9  1  0
  7 13  4  0
  7 19  4  0
  9 20  1  0
 10 19  4  0
 11 25  4  0
 13 14  4  0
 15 16  4  0
 15 17  4  0
 15 21  4  0
 16 24  1  0
 16 25  4  0
 20 24  1  0
 20 26  2  0
 21 23  4  0
 22 23  1  0
M  END
